
---------- Begin Simulation Statistics ----------
simSeconds                                   0.078367                       # Number of seconds simulated (Second)
simTicks                                  78366933000                       # Number of ticks simulated (Tick)
finalTick                                 78528613500                       # Number of ticks from beginning of simulation (restored from checkpoints and never reset) (Tick)
simFreq                                  1000000000000                       # The number of ticks per simulated second ((Tick/Second))
hostSeconds                                   1002.70                       # Real time elapsed on the host (Second)
hostTickRate                                 78155774                       # The number of ticks simulated per host second (ticks/s) ((Tick/Second))
hostMemory                                     921472                       # Number of bytes of host memory used (Byte)
simInsts                                    169334445                       # Number of instructions simulated (Count)
simOps                                      258654408                       # Number of ops (including micro ops) simulated (Count)
hostInstRate                                   168878                       # Simulator instruction rate (inst/s) ((Count/Second))
hostOpRate                                     257957                       # Simulator op (including micro ops) rate (op/s) ((Count/Second))
system.clk_domain.clock                           500                       # Clock period in ticks (Tick)
system.clk_domain.voltage_domain.voltage            1                       # Voltage in Volts (Volt)
system.cpu.numCycles                        156733866                       # Number of cpu cycles simulated (Cycle)
system.cpu.numWorkItemsStarted                      0                       # Number of work items this cpu started (Count)
system.cpu.numWorkItemsCompleted                    0                       # Number of work items this cpu completed (Count)
system.cpu.instsAdded                       519516971                       # Number of instructions added to the IQ (excludes non-spec) (Count)
system.cpu.nonSpecInstsAdded                       28                       # Number of non-speculative instructions added to the IQ (Count)
system.cpu.instsIssued                      426764063                       # Number of instructions issued (Count)
system.cpu.squashedInstsIssued                 690212                       # Number of squashed instructions issued (Count)
system.cpu.squashedInstsExamined            261034911                       # Number of squashed instructions iterated over during squash; mainly for profiling (Count)
system.cpu.squashedOperandsExamined         472143030                       # Number of squashed operands that are examined and possibly removed from graph (Count)
system.cpu.squashedNonSpecRemoved                  18                       # Number of squashed non-spec instructions that were removed (Count)
system.cpu.numIssuedDist::samples           156020372                       # Number of insts issued each cycle (Count)
system.cpu.numIssuedDist::mean               2.735310                       # Number of insts issued each cycle (Count)
system.cpu.numIssuedDist::stdev              2.521578                       # Number of insts issued each cycle (Count)
system.cpu.numIssuedDist::underflows                0      0.00%      0.00% # Number of insts issued each cycle (Count)
system.cpu.numIssuedDist::0                  54548026     34.96%     34.96% # Number of insts issued each cycle (Count)
system.cpu.numIssuedDist::1                   7389546      4.74%     39.70% # Number of insts issued each cycle (Count)
system.cpu.numIssuedDist::2                  15765315     10.10%     49.80% # Number of insts issued each cycle (Count)
system.cpu.numIssuedDist::3                  15091824      9.67%     59.48% # Number of insts issued each cycle (Count)
system.cpu.numIssuedDist::4                  19473315     12.48%     71.96% # Number of insts issued each cycle (Count)
system.cpu.numIssuedDist::5                  14684259      9.41%     81.37% # Number of insts issued each cycle (Count)
system.cpu.numIssuedDist::6                  16706670     10.71%     92.08% # Number of insts issued each cycle (Count)
system.cpu.numIssuedDist::7                   7877496      5.05%     97.13% # Number of insts issued each cycle (Count)
system.cpu.numIssuedDist::8                   4483921      2.87%    100.00% # Number of insts issued each cycle (Count)
system.cpu.numIssuedDist::overflows                 0      0.00%    100.00% # Number of insts issued each cycle (Count)
system.cpu.numIssuedDist::min_value                 0                       # Number of insts issued each cycle (Count)
system.cpu.numIssuedDist::max_value                 8                       # Number of insts issued each cycle (Count)
system.cpu.numIssuedDist::total             156020372                       # Number of insts issued each cycle (Count)
system.cpu.statFuBusy::No_OpClass                   0      0.00%      0.00% # attempts to use FU when none available (Count)
system.cpu.statFuBusy::IntAlu                       0      0.00%      0.00% # attempts to use FU when none available (Count)
system.cpu.statFuBusy::IntMult                      0      0.00%      0.00% # attempts to use FU when none available (Count)
system.cpu.statFuBusy::IntDiv                       0      0.00%      0.00% # attempts to use FU when none available (Count)
system.cpu.statFuBusy::FloatAdd                     0      0.00%      0.00% # attempts to use FU when none available (Count)
system.cpu.statFuBusy::FloatCmp                     0      0.00%      0.00% # attempts to use FU when none available (Count)
system.cpu.statFuBusy::FloatCvt                     0      0.00%      0.00% # attempts to use FU when none available (Count)
system.cpu.statFuBusy::FloatMult                    0      0.00%      0.00% # attempts to use FU when none available (Count)
system.cpu.statFuBusy::FloatMultAcc                 0      0.00%      0.00% # attempts to use FU when none available (Count)
system.cpu.statFuBusy::FloatDiv                     0      0.00%      0.00% # attempts to use FU when none available (Count)
system.cpu.statFuBusy::FloatMisc                    0      0.00%      0.00% # attempts to use FU when none available (Count)
system.cpu.statFuBusy::FloatSqrt                    0      0.00%      0.00% # attempts to use FU when none available (Count)
system.cpu.statFuBusy::SimdAdd                      0      0.00%      0.00% # attempts to use FU when none available (Count)
system.cpu.statFuBusy::SimdAddAcc                   0      0.00%      0.00% # attempts to use FU when none available (Count)
system.cpu.statFuBusy::SimdAlu                      0      0.00%      0.00% # attempts to use FU when none available (Count)
system.cpu.statFuBusy::SimdCmp                      0      0.00%      0.00% # attempts to use FU when none available (Count)
system.cpu.statFuBusy::SimdCvt                    501      0.01%      0.01% # attempts to use FU when none available (Count)
system.cpu.statFuBusy::SimdMisc                     0      0.00%      0.01% # attempts to use FU when none available (Count)
system.cpu.statFuBusy::SimdMult                     0      0.00%      0.01% # attempts to use FU when none available (Count)
system.cpu.statFuBusy::SimdMultAcc                  0      0.00%      0.01% # attempts to use FU when none available (Count)
system.cpu.statFuBusy::SimdShift                    0      0.00%      0.01% # attempts to use FU when none available (Count)
system.cpu.statFuBusy::SimdShiftAcc                 0      0.00%      0.01% # attempts to use FU when none available (Count)
system.cpu.statFuBusy::SimdDiv                      0      0.00%      0.01% # attempts to use FU when none available (Count)
system.cpu.statFuBusy::SimdSqrt                     0      0.00%      0.01% # attempts to use FU when none available (Count)
system.cpu.statFuBusy::SimdFloatAdd                 0      0.00%      0.01% # attempts to use FU when none available (Count)
system.cpu.statFuBusy::SimdFloatAlu                 0      0.00%      0.01% # attempts to use FU when none available (Count)
system.cpu.statFuBusy::SimdFloatCmp                 0      0.00%      0.01% # attempts to use FU when none available (Count)
system.cpu.statFuBusy::SimdFloatCvt                 0      0.00%      0.01% # attempts to use FU when none available (Count)
system.cpu.statFuBusy::SimdFloatDiv                 0      0.00%      0.01% # attempts to use FU when none available (Count)
system.cpu.statFuBusy::SimdFloatMisc                0      0.00%      0.01% # attempts to use FU when none available (Count)
system.cpu.statFuBusy::SimdFloatMult                0      0.00%      0.01% # attempts to use FU when none available (Count)
system.cpu.statFuBusy::SimdFloatMultAcc             0      0.00%      0.01% # attempts to use FU when none available (Count)
system.cpu.statFuBusy::SimdFloatSqrt                0      0.00%      0.01% # attempts to use FU when none available (Count)
system.cpu.statFuBusy::SimdReduceAdd                0      0.00%      0.01% # attempts to use FU when none available (Count)
system.cpu.statFuBusy::SimdReduceAlu                0      0.00%      0.01% # attempts to use FU when none available (Count)
system.cpu.statFuBusy::SimdReduceCmp                0      0.00%      0.01% # attempts to use FU when none available (Count)
system.cpu.statFuBusy::SimdFloatReduceAdd            0      0.00%      0.01% # attempts to use FU when none available (Count)
system.cpu.statFuBusy::SimdFloatReduceCmp            0      0.00%      0.01% # attempts to use FU when none available (Count)
system.cpu.statFuBusy::SimdAes                      0      0.00%      0.01% # attempts to use FU when none available (Count)
system.cpu.statFuBusy::SimdAesMix                   0      0.00%      0.01% # attempts to use FU when none available (Count)
system.cpu.statFuBusy::SimdSha1Hash                 0      0.00%      0.01% # attempts to use FU when none available (Count)
system.cpu.statFuBusy::SimdSha1Hash2                0      0.00%      0.01% # attempts to use FU when none available (Count)
system.cpu.statFuBusy::SimdSha256Hash               0      0.00%      0.01% # attempts to use FU when none available (Count)
system.cpu.statFuBusy::SimdSha256Hash2              0      0.00%      0.01% # attempts to use FU when none available (Count)
system.cpu.statFuBusy::SimdShaSigma2                0      0.00%      0.01% # attempts to use FU when none available (Count)
system.cpu.statFuBusy::SimdShaSigma3                0      0.00%      0.01% # attempts to use FU when none available (Count)
system.cpu.statFuBusy::SimdPredAlu                  0      0.00%      0.01% # attempts to use FU when none available (Count)
system.cpu.statFuBusy::MemRead                3596977     89.27%     89.28% # attempts to use FU when none available (Count)
system.cpu.statFuBusy::MemWrite                431481     10.71%     99.99% # attempts to use FU when none available (Count)
system.cpu.statFuBusy::FloatMemRead                 9      0.00%     99.99% # attempts to use FU when none available (Count)
system.cpu.statFuBusy::FloatMemWrite              309      0.01%    100.00% # attempts to use FU when none available (Count)
system.cpu.statFuBusy::IprAccess                    0      0.00%    100.00% # attempts to use FU when none available (Count)
system.cpu.statFuBusy::InstPrefetch                 0      0.00%    100.00% # attempts to use FU when none available (Count)
system.cpu.statIssuedInstType_0::No_OpClass         9761      0.00%      0.00% # Number of instructions issued per FU type, per thread (Count)
system.cpu.statIssuedInstType_0::IntAlu     252814226     59.24%     59.24% # Number of instructions issued per FU type, per thread (Count)
system.cpu.statIssuedInstType_0::IntMult      1502098      0.35%     59.59% # Number of instructions issued per FU type, per thread (Count)
system.cpu.statIssuedInstType_0::IntDiv          2133      0.00%     59.59% # Number of instructions issued per FU type, per thread (Count)
system.cpu.statIssuedInstType_0::FloatAdd          708      0.00%     59.59% # Number of instructions issued per FU type, per thread (Count)
system.cpu.statIssuedInstType_0::FloatCmp            0      0.00%     59.59% # Number of instructions issued per FU type, per thread (Count)
system.cpu.statIssuedInstType_0::FloatCvt           60      0.00%     59.59% # Number of instructions issued per FU type, per thread (Count)
system.cpu.statIssuedInstType_0::FloatMult            0      0.00%     59.59% # Number of instructions issued per FU type, per thread (Count)
system.cpu.statIssuedInstType_0::FloatMultAcc            0      0.00%     59.59% # Number of instructions issued per FU type, per thread (Count)
system.cpu.statIssuedInstType_0::FloatDiv            0      0.00%     59.59% # Number of instructions issued per FU type, per thread (Count)
system.cpu.statIssuedInstType_0::FloatMisc            0      0.00%     59.59% # Number of instructions issued per FU type, per thread (Count)
system.cpu.statIssuedInstType_0::FloatSqrt            0      0.00%     59.59% # Number of instructions issued per FU type, per thread (Count)
system.cpu.statIssuedInstType_0::SimdAdd            4      0.00%     59.59% # Number of instructions issued per FU type, per thread (Count)
system.cpu.statIssuedInstType_0::SimdAddAcc            0      0.00%     59.59% # Number of instructions issued per FU type, per thread (Count)
system.cpu.statIssuedInstType_0::SimdAlu         4112      0.00%     59.60% # Number of instructions issued per FU type, per thread (Count)
system.cpu.statIssuedInstType_0::SimdCmp            0      0.00%     59.60% # Number of instructions issued per FU type, per thread (Count)
system.cpu.statIssuedInstType_0::SimdCvt         5822      0.00%     59.60% # Number of instructions issued per FU type, per thread (Count)
system.cpu.statIssuedInstType_0::SimdMisc         7607      0.00%     59.60% # Number of instructions issued per FU type, per thread (Count)
system.cpu.statIssuedInstType_0::SimdMult            0      0.00%     59.60% # Number of instructions issued per FU type, per thread (Count)
system.cpu.statIssuedInstType_0::SimdMultAcc            0      0.00%     59.60% # Number of instructions issued per FU type, per thread (Count)
system.cpu.statIssuedInstType_0::SimdShift            0      0.00%     59.60% # Number of instructions issued per FU type, per thread (Count)
system.cpu.statIssuedInstType_0::SimdShiftAcc            0      0.00%     59.60% # Number of instructions issued per FU type, per thread (Count)
system.cpu.statIssuedInstType_0::SimdDiv            0      0.00%     59.60% # Number of instructions issued per FU type, per thread (Count)
system.cpu.statIssuedInstType_0::SimdSqrt            0      0.00%     59.60% # Number of instructions issued per FU type, per thread (Count)
system.cpu.statIssuedInstType_0::SimdFloatAdd            0      0.00%     59.60% # Number of instructions issued per FU type, per thread (Count)
system.cpu.statIssuedInstType_0::SimdFloatAlu            0      0.00%     59.60% # Number of instructions issued per FU type, per thread (Count)
system.cpu.statIssuedInstType_0::SimdFloatCmp            0      0.00%     59.60% # Number of instructions issued per FU type, per thread (Count)
system.cpu.statIssuedInstType_0::SimdFloatCvt            0      0.00%     59.60% # Number of instructions issued per FU type, per thread (Count)
system.cpu.statIssuedInstType_0::SimdFloatDiv            0      0.00%     59.60% # Number of instructions issued per FU type, per thread (Count)
system.cpu.statIssuedInstType_0::SimdFloatMisc            0      0.00%     59.60% # Number of instructions issued per FU type, per thread (Count)
system.cpu.statIssuedInstType_0::SimdFloatMult            0      0.00%     59.60% # Number of instructions issued per FU type, per thread (Count)
system.cpu.statIssuedInstType_0::SimdFloatMultAcc            0      0.00%     59.60% # Number of instructions issued per FU type, per thread (Count)
system.cpu.statIssuedInstType_0::SimdFloatSqrt            0      0.00%     59.60% # Number of instructions issued per FU type, per thread (Count)
system.cpu.statIssuedInstType_0::SimdReduceAdd            0      0.00%     59.60% # Number of instructions issued per FU type, per thread (Count)
system.cpu.statIssuedInstType_0::SimdReduceAlu            0      0.00%     59.60% # Number of instructions issued per FU type, per thread (Count)
system.cpu.statIssuedInstType_0::SimdReduceCmp            0      0.00%     59.60% # Number of instructions issued per FU type, per thread (Count)
system.cpu.statIssuedInstType_0::SimdFloatReduceAdd            0      0.00%     59.60% # Number of instructions issued per FU type, per thread (Count)
system.cpu.statIssuedInstType_0::SimdFloatReduceCmp            0      0.00%     59.60% # Number of instructions issued per FU type, per thread (Count)
system.cpu.statIssuedInstType_0::SimdAes            0      0.00%     59.60% # Number of instructions issued per FU type, per thread (Count)
system.cpu.statIssuedInstType_0::SimdAesMix            0      0.00%     59.60% # Number of instructions issued per FU type, per thread (Count)
system.cpu.statIssuedInstType_0::SimdSha1Hash            0      0.00%     59.60% # Number of instructions issued per FU type, per thread (Count)
system.cpu.statIssuedInstType_0::SimdSha1Hash2            0      0.00%     59.60% # Number of instructions issued per FU type, per thread (Count)
system.cpu.statIssuedInstType_0::SimdSha256Hash            0      0.00%     59.60% # Number of instructions issued per FU type, per thread (Count)
system.cpu.statIssuedInstType_0::SimdSha256Hash2            0      0.00%     59.60% # Number of instructions issued per FU type, per thread (Count)
system.cpu.statIssuedInstType_0::SimdShaSigma2            0      0.00%     59.60% # Number of instructions issued per FU type, per thread (Count)
system.cpu.statIssuedInstType_0::SimdShaSigma3            0      0.00%     59.60% # Number of instructions issued per FU type, per thread (Count)
system.cpu.statIssuedInstType_0::SimdPredAlu            0      0.00%     59.60% # Number of instructions issued per FU type, per thread (Count)
system.cpu.statIssuedInstType_0::MemRead    141737138     33.21%     92.81% # Number of instructions issued per FU type, per thread (Count)
system.cpu.statIssuedInstType_0::MemWrite     30672503      7.19%    100.00% # Number of instructions issued per FU type, per thread (Count)
system.cpu.statIssuedInstType_0::FloatMemRead         5356      0.00%    100.00% # Number of instructions issued per FU type, per thread (Count)
system.cpu.statIssuedInstType_0::FloatMemWrite         2535      0.00%    100.00% # Number of instructions issued per FU type, per thread (Count)
system.cpu.statIssuedInstType_0::IprAccess            0      0.00%    100.00% # Number of instructions issued per FU type, per thread (Count)
system.cpu.statIssuedInstType_0::InstPrefetch            0      0.00%    100.00% # Number of instructions issued per FU type, per thread (Count)
system.cpu.statIssuedInstType_0::total      426764063                       # Number of instructions issued per FU type, per thread (Count)
system.cpu.issueRate                         2.722858                       # Inst issue rate ((Count/Cycle))
system.cpu.fuBusy                             4029277                       # FU busy when requested (Count)
system.cpu.fuBusyRate                        0.009441                       # FU busy rate (busy events/executed inst) ((Count/Count))
system.cpu.intInstQueueReads               1014207814                       # Number of integer instruction queue reads (Count)
system.cpu.intInstQueueWrites               780520556                       # Number of integer instruction queue writes (Count)
system.cpu.intInstQueueWakeupAccesses       408051520                       # Number of integer instruction queue wakeup accesses (Count)
system.cpu.fpInstQueueReads                     60172                       # Number of floating instruction queue reads (Count)
system.cpu.fpInstQueueWrites                    38076                       # Number of floating instruction queue writes (Count)
system.cpu.fpInstQueueWakeupAccesses            28292                       # Number of floating instruction queue wakeup accesses (Count)
system.cpu.vecInstQueueReads                        0                       # Number of vector instruction queue reads (Count)
system.cpu.vecInstQueueWrites                       0                       # Number of vector instruction queue writes (Count)
system.cpu.vecInstQueueWakeupAccesses               0                       # Number of vector instruction queue wakeup accesses (Count)
system.cpu.intAluAccesses                   430753352                       # Number of integer alu accesses (Count)
system.cpu.fpAluAccesses                        30227                       # Number of floating point alu accesses (Count)
system.cpu.vecAluAccesses                           0                       # Number of vector alu accesses (Count)
system.cpu.numInsts                         416790528                       # Number of executed instructions (Count)
system.cpu.numLoadInsts                     137243812                       # Number of load instructions executed (Count)
system.cpu.numSquashedInsts                   9973534                       # Number of squashed instructions skipped in execute (Count)
system.cpu.numSwp                                   0                       # Number of swp insts executed (Count)
system.cpu.numNop                                   0                       # Number of nop insts executed (Count)
system.cpu.numRefs                          165330231                       # Number of memory reference insts executed (Count)
system.cpu.numBranches                       24392524                       # Number of branches executed (Count)
system.cpu.numStoreInsts                     28086419                       # Number of stores executed (Count)
system.cpu.numRate                           2.659224                       # Inst execution rate ((Count/Cycle))
system.cpu.timesIdled                           17185                       # Number of times that the entire CPU went into an idle state and unscheduled itself (Count)
system.cpu.idleCycles                          713494                       # Total number of cycles that the CPU has spent unscheduled due to idling (Cycle)
system.cpu.committedInsts                   169239831                       # Number of Instructions Simulated (Count)
system.cpu.committedOps                     258482080                       # Number of Ops (including micro ops) Simulated (Count)
system.cpu.cpi                               0.926105                       # CPI: Cycles Per Instruction ((Cycle/Count))
system.cpu.totalCpi                          0.926105                       # CPI: Total CPI of All Threads ((Cycle/Count))
system.cpu.ipc                               1.079791                       # IPC: Instructions Per Cycle ((Count/Cycle))
system.cpu.totalIpc                          1.079791                       # IPC: Total IPC of All Threads ((Count/Cycle))
system.cpu.intRegfileReads                  486318903                       # Number of integer regfile reads (Count)
system.cpu.intRegfileWrites                 341132097                       # Number of integer regfile writes (Count)
system.cpu.fpRegfileReads                       47505                       # Number of floating regfile reads (Count)
system.cpu.fpRegfileWrites                      23397                       # Number of floating regfile writes (Count)
system.cpu.ccRegfileReads                    92017743                       # number of cc regfile reads (Count)
system.cpu.ccRegfileWrites                  126712261                       # number of cc regfile writes (Count)
system.cpu.miscRegfileReads                 225269574                       # number of misc regfile reads (Count)
system.cpu.miscRegfileWrites                        9                       # number of misc regfile writes (Count)
system.cpu.MemDepUnit__0.insertedLoads      166278902                       # Number of loads inserted to the mem dependence unit. (Count)
system.cpu.MemDepUnit__0.insertedStores      40745413                       # Number of stores inserted to the mem dependence unit. (Count)
system.cpu.MemDepUnit__0.conflictingLoads     55025754                       # Number of conflicting loads. (Count)
system.cpu.MemDepUnit__0.conflictingStores     13531696                       # Number of conflicting stores. (Count)
system.cpu.MemDepUnit__1.insertedLoads              0                       # Number of loads inserted to the mem dependence unit. (Count)
system.cpu.MemDepUnit__1.insertedStores             0                       # Number of stores inserted to the mem dependence unit. (Count)
system.cpu.MemDepUnit__1.conflictingLoads            0                       # Number of conflicting loads. (Count)
system.cpu.MemDepUnit__1.conflictingStores            0                       # Number of conflicting stores. (Count)
system.cpu.MemDepUnit__2.insertedLoads              0                       # Number of loads inserted to the mem dependence unit. (Count)
system.cpu.MemDepUnit__2.insertedStores             0                       # Number of stores inserted to the mem dependence unit. (Count)
system.cpu.MemDepUnit__2.conflictingLoads            0                       # Number of conflicting loads. (Count)
system.cpu.MemDepUnit__2.conflictingStores            0                       # Number of conflicting stores. (Count)
system.cpu.MemDepUnit__3.insertedLoads              0                       # Number of loads inserted to the mem dependence unit. (Count)
system.cpu.MemDepUnit__3.insertedStores             0                       # Number of stores inserted to the mem dependence unit. (Count)
system.cpu.MemDepUnit__3.conflictingLoads            0                       # Number of conflicting loads. (Count)
system.cpu.MemDepUnit__3.conflictingStores            0                       # Number of conflicting stores. (Count)
system.cpu.branchPred.lookups                43567626                       # Number of BP lookups (Count)
system.cpu.branchPred.condPredicted          34053947                       # Number of conditional branches predicted (Count)
system.cpu.branchPred.condIncorrect           4029647                       # Number of conditional branches incorrect (Count)
system.cpu.branchPred.BTBLookups             28502407                       # Number of BTB lookups (Count)
system.cpu.branchPred.BTBHits                28500498                       # Number of BTB hits (Count)
system.cpu.branchPred.BTBHitRatio            0.999933                       # BTB Hit Ratio (Ratio)
system.cpu.branchPred.RASUsed                 2408639                       # Number of times the RAS was used to get a target. (Count)
system.cpu.branchPred.RASIncorrect               2203                       # Number of incorrect RAS predictions. (Count)
system.cpu.branchPred.indirectLookups            5363                       # Number of indirect predictor lookups. (Count)
system.cpu.branchPred.indirectHits               4898                       # Number of indirect target hits. (Count)
system.cpu.branchPred.indirectMisses              465                       # Number of indirect misses. (Count)
system.cpu.branchPred.indirectMispredicted           60                       # Number of mispredicted indirect branches. (Count)
system.cpu.commit.commitSquashedInsts       261028392                       # The number of squashed insts skipped by commit (Count)
system.cpu.commit.commitNonSpecStalls              10                       # The number of times commit has been forced to stall to communicate backwards (Count)
system.cpu.commit.branchMispredicts           4028694                       # The number of times a branch was mispredicted (Count)
system.cpu.commit.numCommittedDist::samples    121034160                       # Number of insts commited each cycle (Count)
system.cpu.commit.numCommittedDist::mean     2.135613                       # Number of insts commited each cycle (Count)
system.cpu.commit.numCommittedDist::stdev     2.788381                       # Number of insts commited each cycle (Count)
system.cpu.commit.numCommittedDist::underflows            0      0.00%      0.00% # Number of insts commited each cycle (Count)
system.cpu.commit.numCommittedDist::0        45577605     37.66%     37.66% # Number of insts commited each cycle (Count)
system.cpu.commit.numCommittedDist::1        28840095     23.83%     61.48% # Number of insts commited each cycle (Count)
system.cpu.commit.numCommittedDist::2        15005701     12.40%     73.88% # Number of insts commited each cycle (Count)
system.cpu.commit.numCommittedDist::3         6685090      5.52%     79.41% # Number of insts commited each cycle (Count)
system.cpu.commit.numCommittedDist::4         3174538      2.62%     82.03% # Number of insts commited each cycle (Count)
system.cpu.commit.numCommittedDist::5          765220      0.63%     82.66% # Number of insts commited each cycle (Count)
system.cpu.commit.numCommittedDist::6         1779795      1.47%     84.13% # Number of insts commited each cycle (Count)
system.cpu.commit.numCommittedDist::7         1276637      1.05%     85.19% # Number of insts commited each cycle (Count)
system.cpu.commit.numCommittedDist::8        17929479     14.81%    100.00% # Number of insts commited each cycle (Count)
system.cpu.commit.numCommittedDist::overflows            0      0.00%    100.00% # Number of insts commited each cycle (Count)
system.cpu.commit.numCommittedDist::min_value            0                       # Number of insts commited each cycle (Count)
system.cpu.commit.numCommittedDist::max_value            8                       # Number of insts commited each cycle (Count)
system.cpu.commit.numCommittedDist::total    121034160                       # Number of insts commited each cycle (Count)
system.cpu.commit.instsCommitted            169239831                       # Number of instructions committed (Count)
system.cpu.commit.opsCommitted              258482080                       # Number of ops (including micro ops) committed (Count)
system.cpu.commit.memRefs                    99135984                       # Number of memory references committed (Count)
system.cpu.commit.loads                      79782952                       # Number of loads committed (Count)
system.cpu.commit.amos                              0                       # Number of atomic instructions committed (Count)
system.cpu.commit.membars                           0                       # Number of memory barriers committed (Count)
system.cpu.commit.branches                   18288753                       # Number of branches committed (Count)
system.cpu.commit.vectorInstructions                0                       # Number of committed Vector instructions. (Count)
system.cpu.commit.floating                      25816                       # Number of committed floating point instructions. (Count)
system.cpu.commit.integer                   258012315                       # Number of committed integer instructions. (Count)
system.cpu.commit.functionCalls                948644                       # Number of function calls committed. (Count)
system.cpu.commit.committedInstType_0::No_OpClass         7958      0.00%      0.00% # Class of committed instruction (Count)
system.cpu.commit.committedInstType_0::IntAlu    157817502     61.06%     61.06% # Class of committed instruction (Count)
system.cpu.commit.committedInstType_0::IntMult      1501070      0.58%     61.64% # Class of committed instruction (Count)
system.cpu.commit.committedInstType_0::IntDiv         2122      0.00%     61.64% # Class of committed instruction (Count)
system.cpu.commit.committedInstType_0::FloatAdd          708      0.00%     61.64% # Class of committed instruction (Count)
system.cpu.commit.committedInstType_0::FloatCmp            0      0.00%     61.64% # Class of committed instruction (Count)
system.cpu.commit.committedInstType_0::FloatCvt           16      0.00%     61.64% # Class of committed instruction (Count)
system.cpu.commit.committedInstType_0::FloatMult            0      0.00%     61.64% # Class of committed instruction (Count)
system.cpu.commit.committedInstType_0::FloatMultAcc            0      0.00%     61.64% # Class of committed instruction (Count)
system.cpu.commit.committedInstType_0::FloatDiv            0      0.00%     61.64% # Class of committed instruction (Count)
system.cpu.commit.committedInstType_0::FloatMisc            0      0.00%     61.64% # Class of committed instruction (Count)
system.cpu.commit.committedInstType_0::FloatSqrt            0      0.00%     61.64% # Class of committed instruction (Count)
system.cpu.commit.committedInstType_0::SimdAdd            4      0.00%     61.64% # Class of committed instruction (Count)
system.cpu.commit.committedInstType_0::SimdAddAcc            0      0.00%     61.64% # Class of committed instruction (Count)
system.cpu.commit.committedInstType_0::SimdAlu         4004      0.00%     61.64% # Class of committed instruction (Count)
system.cpu.commit.committedInstType_0::SimdCmp            0      0.00%     61.64% # Class of committed instruction (Count)
system.cpu.commit.committedInstType_0::SimdCvt         5208      0.00%     61.64% # Class of committed instruction (Count)
system.cpu.commit.committedInstType_0::SimdMisc         7504      0.00%     61.65% # Class of committed instruction (Count)
system.cpu.commit.committedInstType_0::SimdMult            0      0.00%     61.65% # Class of committed instruction (Count)
system.cpu.commit.committedInstType_0::SimdMultAcc            0      0.00%     61.65% # Class of committed instruction (Count)
system.cpu.commit.committedInstType_0::SimdShift            0      0.00%     61.65% # Class of committed instruction (Count)
system.cpu.commit.committedInstType_0::SimdShiftAcc            0      0.00%     61.65% # Class of committed instruction (Count)
system.cpu.commit.committedInstType_0::SimdDiv            0      0.00%     61.65% # Class of committed instruction (Count)
system.cpu.commit.committedInstType_0::SimdSqrt            0      0.00%     61.65% # Class of committed instruction (Count)
system.cpu.commit.committedInstType_0::SimdFloatAdd            0      0.00%     61.65% # Class of committed instruction (Count)
system.cpu.commit.committedInstType_0::SimdFloatAlu            0      0.00%     61.65% # Class of committed instruction (Count)
system.cpu.commit.committedInstType_0::SimdFloatCmp            0      0.00%     61.65% # Class of committed instruction (Count)
system.cpu.commit.committedInstType_0::SimdFloatCvt            0      0.00%     61.65% # Class of committed instruction (Count)
system.cpu.commit.committedInstType_0::SimdFloatDiv            0      0.00%     61.65% # Class of committed instruction (Count)
system.cpu.commit.committedInstType_0::SimdFloatMisc            0      0.00%     61.65% # Class of committed instruction (Count)
system.cpu.commit.committedInstType_0::SimdFloatMult            0      0.00%     61.65% # Class of committed instruction (Count)
system.cpu.commit.committedInstType_0::SimdFloatMultAcc            0      0.00%     61.65% # Class of committed instruction (Count)
system.cpu.commit.committedInstType_0::SimdFloatSqrt            0      0.00%     61.65% # Class of committed instruction (Count)
system.cpu.commit.committedInstType_0::SimdReduceAdd            0      0.00%     61.65% # Class of committed instruction (Count)
system.cpu.commit.committedInstType_0::SimdReduceAlu            0      0.00%     61.65% # Class of committed instruction (Count)
system.cpu.commit.committedInstType_0::SimdReduceCmp            0      0.00%     61.65% # Class of committed instruction (Count)
system.cpu.commit.committedInstType_0::SimdFloatReduceAdd            0      0.00%     61.65% # Class of committed instruction (Count)
system.cpu.commit.committedInstType_0::SimdFloatReduceCmp            0      0.00%     61.65% # Class of committed instruction (Count)
system.cpu.commit.committedInstType_0::SimdAes            0      0.00%     61.65% # Class of committed instruction (Count)
system.cpu.commit.committedInstType_0::SimdAesMix            0      0.00%     61.65% # Class of committed instruction (Count)
system.cpu.commit.committedInstType_0::SimdSha1Hash            0      0.00%     61.65% # Class of committed instruction (Count)
system.cpu.commit.committedInstType_0::SimdSha1Hash2            0      0.00%     61.65% # Class of committed instruction (Count)
system.cpu.commit.committedInstType_0::SimdSha256Hash            0      0.00%     61.65% # Class of committed instruction (Count)
system.cpu.commit.committedInstType_0::SimdSha256Hash2            0      0.00%     61.65% # Class of committed instruction (Count)
system.cpu.commit.committedInstType_0::SimdShaSigma2            0      0.00%     61.65% # Class of committed instruction (Count)
system.cpu.commit.committedInstType_0::SimdShaSigma3            0      0.00%     61.65% # Class of committed instruction (Count)
system.cpu.commit.committedInstType_0::SimdPredAlu            0      0.00%     61.65% # Class of committed instruction (Count)
system.cpu.commit.committedInstType_0::MemRead     79778912     30.86%     92.51% # Class of committed instruction (Count)
system.cpu.commit.committedInstType_0::MemWrite     19351600      7.49%    100.00% # Class of committed instruction (Count)
system.cpu.commit.committedInstType_0::FloatMemRead         4040      0.00%    100.00% # Class of committed instruction (Count)
system.cpu.commit.committedInstType_0::FloatMemWrite         1432      0.00%    100.00% # Class of committed instruction (Count)
system.cpu.commit.committedInstType_0::IprAccess            0      0.00%    100.00% # Class of committed instruction (Count)
system.cpu.commit.committedInstType_0::InstPrefetch            0      0.00%    100.00% # Class of committed instruction (Count)
system.cpu.commit.committedInstType_0::total    258482080                       # Class of committed instruction (Count)
system.cpu.commit.commitEligibleSamples      17929479                       # number cycles where commit BW limit reached (Cycle)
system.cpu.dcache.demandHits::cpu.data      103578757                       # number of demand (read+write) hits (Count)
system.cpu.dcache.demandHits::total         103578757                       # number of demand (read+write) hits (Count)
system.cpu.dcache.overallHits::cpu.data     103578757                       # number of overall hits (Count)
system.cpu.dcache.overallHits::total        103578757                       # number of overall hits (Count)
system.cpu.dcache.demandMisses::cpu.data       748303                       # number of demand (read+write) misses (Count)
system.cpu.dcache.demandMisses::total          748303                       # number of demand (read+write) misses (Count)
system.cpu.dcache.overallMisses::cpu.data       748303                       # number of overall misses (Count)
system.cpu.dcache.overallMisses::total         748303                       # number of overall misses (Count)
system.cpu.dcache.demandMissLatency::cpu.data   8212830500                       # number of demand (read+write) miss ticks (Tick)
system.cpu.dcache.demandMissLatency::total   8212830500                       # number of demand (read+write) miss ticks (Tick)
system.cpu.dcache.overallMissLatency::cpu.data   8212830500                       # number of overall miss ticks (Tick)
system.cpu.dcache.overallMissLatency::total   8212830500                       # number of overall miss ticks (Tick)
system.cpu.dcache.demandAccesses::cpu.data    104327060                       # number of demand (read+write) accesses (Count)
system.cpu.dcache.demandAccesses::total     104327060                       # number of demand (read+write) accesses (Count)
system.cpu.dcache.overallAccesses::cpu.data    104327060                       # number of overall (read+write) accesses (Count)
system.cpu.dcache.overallAccesses::total    104327060                       # number of overall (read+write) accesses (Count)
system.cpu.dcache.demandMissRate::cpu.data     0.007173                       # miss rate for demand accesses (Ratio)
system.cpu.dcache.demandMissRate::total      0.007173                       # miss rate for demand accesses (Ratio)
system.cpu.dcache.overallMissRate::cpu.data     0.007173                       # miss rate for overall accesses (Ratio)
system.cpu.dcache.overallMissRate::total     0.007173                       # miss rate for overall accesses (Ratio)
system.cpu.dcache.demandAvgMissLatency::cpu.data 10975.274053                       # average overall miss latency in ticks ((Tick/Count))
system.cpu.dcache.demandAvgMissLatency::total 10975.274053                       # average overall miss latency in ticks ((Tick/Count))
system.cpu.dcache.overallAvgMissLatency::cpu.data 10975.274053                       # average overall miss latency ((Tick/Count))
system.cpu.dcache.overallAvgMissLatency::total 10975.274053                       # average overall miss latency ((Tick/Count))
system.cpu.dcache.blockedCycles::no_mshrs         8532                       # number of cycles access was blocked (Cycle)
system.cpu.dcache.blockedCycles::no_targets           46                       # number of cycles access was blocked (Cycle)
system.cpu.dcache.blockedCauses::no_mshrs          799                       # number of times access was blocked (Count)
system.cpu.dcache.blockedCauses::no_targets            1                       # number of times access was blocked (Count)
system.cpu.dcache.avgBlocked::no_mshrs      10.678348                       # average number of cycles each access was blocked ((Cycle/Count))
system.cpu.dcache.avgBlocked::no_targets           46                       # average number of cycles each access was blocked ((Cycle/Count))
system.cpu.dcache.writebacks::writebacks       204368                       # number of writebacks (Count)
system.cpu.dcache.writebacks::total            204368                       # number of writebacks (Count)
system.cpu.dcache.demandMshrHits::cpu.data       534686                       # number of demand (read+write) MSHR hits (Count)
system.cpu.dcache.demandMshrHits::total        534686                       # number of demand (read+write) MSHR hits (Count)
system.cpu.dcache.overallMshrHits::cpu.data       534686                       # number of overall MSHR hits (Count)
system.cpu.dcache.overallMshrHits::total       534686                       # number of overall MSHR hits (Count)
system.cpu.dcache.demandMshrMisses::cpu.data       213617                       # number of demand (read+write) MSHR misses (Count)
system.cpu.dcache.demandMshrMisses::total       213617                       # number of demand (read+write) MSHR misses (Count)
system.cpu.dcache.overallMshrMisses::cpu.data       213617                       # number of overall MSHR misses (Count)
system.cpu.dcache.overallMshrMisses::total       213617                       # number of overall MSHR misses (Count)
system.cpu.dcache.demandMshrMissLatency::cpu.data   3053701000                       # number of demand (read+write) MSHR miss ticks (Tick)
system.cpu.dcache.demandMshrMissLatency::total   3053701000                       # number of demand (read+write) MSHR miss ticks (Tick)
system.cpu.dcache.overallMshrMissLatency::cpu.data   3053701000                       # number of overall MSHR miss ticks (Tick)
system.cpu.dcache.overallMshrMissLatency::total   3053701000                       # number of overall MSHR miss ticks (Tick)
system.cpu.dcache.demandMshrMissRate::cpu.data     0.002048                       # mshr miss ratio for demand accesses (Ratio)
system.cpu.dcache.demandMshrMissRate::total     0.002048                       # mshr miss ratio for demand accesses (Ratio)
system.cpu.dcache.overallMshrMissRate::cpu.data     0.002048                       # mshr miss ratio for overall accesses (Ratio)
system.cpu.dcache.overallMshrMissRate::total     0.002048                       # mshr miss ratio for overall accesses (Ratio)
system.cpu.dcache.demandAvgMshrMissLatency::cpu.data 14295.215268                       # average overall mshr miss latency ((Tick/Count))
system.cpu.dcache.demandAvgMshrMissLatency::total 14295.215268                       # average overall mshr miss latency ((Tick/Count))
system.cpu.dcache.overallAvgMshrMissLatency::cpu.data 14295.215268                       # average overall mshr miss latency ((Tick/Count))
system.cpu.dcache.overallAvgMshrMissLatency::total 14295.215268                       # average overall mshr miss latency ((Tick/Count))
system.cpu.dcache.replacements                 213616                       # number of replacements (Count)
system.cpu.dcache.ReadReq.hits::cpu.data     84273245                       # number of ReadReq hits (Count)
system.cpu.dcache.ReadReq.hits::total        84273245                       # number of ReadReq hits (Count)
system.cpu.dcache.ReadReq.misses::cpu.data       700783                       # number of ReadReq misses (Count)
system.cpu.dcache.ReadReq.misses::total        700783                       # number of ReadReq misses (Count)
system.cpu.dcache.ReadReq.missLatency::cpu.data   7239859000                       # number of ReadReq miss ticks (Tick)
system.cpu.dcache.ReadReq.missLatency::total   7239859000                       # number of ReadReq miss ticks (Tick)
system.cpu.dcache.ReadReq.accesses::cpu.data     84974028                       # number of ReadReq accesses(hits+misses) (Count)
system.cpu.dcache.ReadReq.accesses::total     84974028                       # number of ReadReq accesses(hits+misses) (Count)
system.cpu.dcache.ReadReq.missRate::cpu.data     0.008247                       # miss rate for ReadReq accesses (Ratio)
system.cpu.dcache.ReadReq.missRate::total     0.008247                       # miss rate for ReadReq accesses (Ratio)
system.cpu.dcache.ReadReq.avgMissLatency::cpu.data 10331.099641                       # average ReadReq miss latency ((Tick/Count))
system.cpu.dcache.ReadReq.avgMissLatency::total 10331.099641                       # average ReadReq miss latency ((Tick/Count))
system.cpu.dcache.ReadReq.mshrHits::cpu.data       534618                       # number of ReadReq MSHR hits (Count)
system.cpu.dcache.ReadReq.mshrHits::total       534618                       # number of ReadReq MSHR hits (Count)
system.cpu.dcache.ReadReq.mshrMisses::cpu.data       166165                       # number of ReadReq MSHR misses (Count)
system.cpu.dcache.ReadReq.mshrMisses::total       166165                       # number of ReadReq MSHR misses (Count)
system.cpu.dcache.ReadReq.mshrMissLatency::cpu.data   2129368000                       # number of ReadReq MSHR miss ticks (Tick)
system.cpu.dcache.ReadReq.mshrMissLatency::total   2129368000                       # number of ReadReq MSHR miss ticks (Tick)
system.cpu.dcache.ReadReq.mshrMissRate::cpu.data     0.001955                       # mshr miss rate for ReadReq accesses (Ratio)
system.cpu.dcache.ReadReq.mshrMissRate::total     0.001955                       # mshr miss rate for ReadReq accesses (Ratio)
system.cpu.dcache.ReadReq.avgMshrMissLatency::cpu.data 12814.780489                       # average ReadReq mshr miss latency ((Tick/Count))
system.cpu.dcache.ReadReq.avgMshrMissLatency::total 12814.780489                       # average ReadReq mshr miss latency ((Tick/Count))
system.cpu.dcache.WriteReq.hits::cpu.data     19305512                       # number of WriteReq hits (Count)
system.cpu.dcache.WriteReq.hits::total       19305512                       # number of WriteReq hits (Count)
system.cpu.dcache.WriteReq.misses::cpu.data        47520                       # number of WriteReq misses (Count)
system.cpu.dcache.WriteReq.misses::total        47520                       # number of WriteReq misses (Count)
system.cpu.dcache.WriteReq.missLatency::cpu.data    972971500                       # number of WriteReq miss ticks (Tick)
system.cpu.dcache.WriteReq.missLatency::total    972971500                       # number of WriteReq miss ticks (Tick)
system.cpu.dcache.WriteReq.accesses::cpu.data     19353032                       # number of WriteReq accesses(hits+misses) (Count)
system.cpu.dcache.WriteReq.accesses::total     19353032                       # number of WriteReq accesses(hits+misses) (Count)
system.cpu.dcache.WriteReq.missRate::cpu.data     0.002455                       # miss rate for WriteReq accesses (Ratio)
system.cpu.dcache.WriteReq.missRate::total     0.002455                       # miss rate for WriteReq accesses (Ratio)
system.cpu.dcache.WriteReq.avgMissLatency::cpu.data 20474.989478                       # average WriteReq miss latency ((Tick/Count))
system.cpu.dcache.WriteReq.avgMissLatency::total 20474.989478                       # average WriteReq miss latency ((Tick/Count))
system.cpu.dcache.WriteReq.mshrHits::cpu.data           68                       # number of WriteReq MSHR hits (Count)
system.cpu.dcache.WriteReq.mshrHits::total           68                       # number of WriteReq MSHR hits (Count)
system.cpu.dcache.WriteReq.mshrMisses::cpu.data        47452                       # number of WriteReq MSHR misses (Count)
system.cpu.dcache.WriteReq.mshrMisses::total        47452                       # number of WriteReq MSHR misses (Count)
system.cpu.dcache.WriteReq.mshrMissLatency::cpu.data    924333000                       # number of WriteReq MSHR miss ticks (Tick)
system.cpu.dcache.WriteReq.mshrMissLatency::total    924333000                       # number of WriteReq MSHR miss ticks (Tick)
system.cpu.dcache.WriteReq.mshrMissRate::cpu.data     0.002452                       # mshr miss rate for WriteReq accesses (Ratio)
system.cpu.dcache.WriteReq.mshrMissRate::total     0.002452                       # mshr miss rate for WriteReq accesses (Ratio)
system.cpu.dcache.WriteReq.avgMshrMissLatency::cpu.data 19479.326477                       # average WriteReq mshr miss latency ((Tick/Count))
system.cpu.dcache.WriteReq.avgMshrMissLatency::total 19479.326477                       # average WriteReq mshr miss latency ((Tick/Count))
system.cpu.dcache.power_state.pwrStateResidencyTicks::UNDEFINED  78528613500                       # Cumulative time (in ticks) in various power states (Tick)
system.cpu.dcache.tags.tagsInUse                   64                       # Average ticks per tags in use ((Tick/Count))
system.cpu.dcache.tags.totalRefs            103648732                       # Total number of references to valid blocks. (Count)
system.cpu.dcache.tags.sampledRefs             213616                       # Sample count of references to valid blocks. (Count)
system.cpu.dcache.tags.avgRefs             485.210527                       # Average number of references to valid blocks. ((Count/Count))
system.cpu.dcache.tags.warmupTick             8372500                       # The tick when the warmup percentage was hit. (Tick)
system.cpu.dcache.tags.occupancies::cpu.data           64                       # Average occupied blocks per tick, per requestor ((Count/Tick))
system.cpu.dcache.tags.avgOccs::cpu.data            1                       # Average percentage of cache occupancy ((Ratio/Tick))
system.cpu.dcache.tags.avgOccs::total               1                       # Average percentage of cache occupancy ((Ratio/Tick))
system.cpu.dcache.tags.occupanciesTaskId::1024           64                       # Occupied blocks per task id (Count)
system.cpu.dcache.tags.ageTaskId_1024::0           33                       # Occupied blocks per task id, per block age (Count)
system.cpu.dcache.tags.ageTaskId_1024::1           17                       # Occupied blocks per task id, per block age (Count)
system.cpu.dcache.tags.ageTaskId_1024::2           14                       # Occupied blocks per task id, per block age (Count)
system.cpu.dcache.tags.ratioOccsTaskId::1024            1                       # Ratio of occupied blocks and all blocks, per task id (Ratio)
system.cpu.dcache.tags.tagAccesses          208867736                       # Number of tag accesses (Count)
system.cpu.dcache.tags.dataAccesses         208867736                       # Number of data accesses (Count)
system.cpu.dcache.tags.power_state.pwrStateResidencyTicks::UNDEFINED  78528613500                       # Cumulative time (in ticks) in various power states (Tick)
system.cpu.decode.idleCycles                 29616077                       # Number of cycles decode is idle (Cycle)
system.cpu.decode.blockedCycles              42718907                       # Number of cycles decode is blocked (Cycle)
system.cpu.decode.runCycles                  70216060                       # Number of cycles decode is running (Cycle)
system.cpu.decode.unblockCycles               9434576                       # Number of cycles decode is unblocking (Cycle)
system.cpu.decode.squashCycles                4034752                       # Number of cycles decode is squashing (Cycle)
system.cpu.decode.branchResolved             26147193                       # Number of times decode resolved a branch (Count)
system.cpu.decode.branchMispred                  1123                       # Number of times decode detected a branch misprediction (Count)
system.cpu.decode.decodedInsts              575511804                       # Number of instructions handled by decode (Count)
system.cpu.decode.squashedInsts                   699                       # Number of squashed instructions handled by decode (Count)
system.cpu.fetch.icacheStallCycles           41812648                       # Number of cycles fetch is stalled on an Icache miss (Cycle)
system.cpu.fetch.insts                      403963203                       # Number of instructions fetch has processed (Count)
system.cpu.fetch.branches                    43567626                       # Number of branches that fetch encountered (Count)
system.cpu.fetch.predictedBranches           30914035                       # Number of branches that fetch has predicted taken (Count)
system.cpu.fetch.cycles                     110170411                       # Number of cycles fetch has run and was not squashing or blocked (Cycle)
system.cpu.fetch.squashCycles                 8071730                       # Number of cycles fetch has spent squashing (Cycle)
system.cpu.fetch.miscStallCycles                  174                       # Number of cycles fetch has spent waiting on interrupts, or bad addresses, or out of MSHRs (Cycle)
system.cpu.fetch.pendingTrapStallCycles          1267                       # Number of stall cycles due to pending traps (Cycle)
system.cpu.fetch.icacheWaitRetryStallCycles            7                       # Number of stall cycles due to full MSHR (Cycle)
system.cpu.fetch.cacheLines                  39542654                       # Number of cache lines fetched (Count)
system.cpu.fetch.icacheSquashes                907479                       # Number of outstanding Icache misses that were squashed (Count)
system.cpu.fetch.nisnDist::samples          156020372                       # Number of instructions fetched each cycle (Total) (Count)
system.cpu.fetch.nisnDist::mean              3.950383                       # Number of instructions fetched each cycle (Total) (Count)
system.cpu.fetch.nisnDist::stdev             3.577154                       # Number of instructions fetched each cycle (Total) (Count)
system.cpu.fetch.nisnDist::underflows               0      0.00%      0.00% # Number of instructions fetched each cycle (Total) (Count)
system.cpu.fetch.nisnDist::0                 60082370     38.51%     38.51% # Number of instructions fetched each cycle (Total) (Count)
system.cpu.fetch.nisnDist::1                  6258555      4.01%     42.52% # Number of instructions fetched each cycle (Total) (Count)
system.cpu.fetch.nisnDist::2                  2014145      1.29%     43.81% # Number of instructions fetched each cycle (Total) (Count)
system.cpu.fetch.nisnDist::3                  8574083      5.50%     49.31% # Number of instructions fetched each cycle (Total) (Count)
system.cpu.fetch.nisnDist::4                  1112281      0.71%     50.02% # Number of instructions fetched each cycle (Total) (Count)
system.cpu.fetch.nisnDist::5                  6708764      4.30%     54.32% # Number of instructions fetched each cycle (Total) (Count)
system.cpu.fetch.nisnDist::6                  5140480      3.29%     57.61% # Number of instructions fetched each cycle (Total) (Count)
system.cpu.fetch.nisnDist::7                 17542223     11.24%     68.86% # Number of instructions fetched each cycle (Total) (Count)
system.cpu.fetch.nisnDist::8                 48587471     31.14%    100.00% # Number of instructions fetched each cycle (Total) (Count)
system.cpu.fetch.nisnDist::overflows                0      0.00%    100.00% # Number of instructions fetched each cycle (Total) (Count)
system.cpu.fetch.nisnDist::min_value                0                       # Number of instructions fetched each cycle (Total) (Count)
system.cpu.fetch.nisnDist::max_value                8                       # Number of instructions fetched each cycle (Total) (Count)
system.cpu.fetch.nisnDist::total            156020372                       # Number of instructions fetched each cycle (Total) (Count)
system.cpu.fetch.branchRate                  0.277972                       # Number of branch fetches per cycle (Ratio)
system.cpu.fetch.rate                        2.577383                       # Number of inst fetches per cycle ((Count/Cycle))
system.cpu.icache.demandHits::cpu.inst       39521357                       # number of demand (read+write) hits (Count)
system.cpu.icache.demandHits::total          39521357                       # number of demand (read+write) hits (Count)
system.cpu.icache.overallHits::cpu.inst      39521357                       # number of overall hits (Count)
system.cpu.icache.overallHits::total         39521357                       # number of overall hits (Count)
system.cpu.icache.demandMisses::cpu.inst        21297                       # number of demand (read+write) misses (Count)
system.cpu.icache.demandMisses::total           21297                       # number of demand (read+write) misses (Count)
system.cpu.icache.overallMisses::cpu.inst        21297                       # number of overall misses (Count)
system.cpu.icache.overallMisses::total          21297                       # number of overall misses (Count)
system.cpu.icache.demandMissLatency::cpu.inst    746866000                       # number of demand (read+write) miss ticks (Tick)
system.cpu.icache.demandMissLatency::total    746866000                       # number of demand (read+write) miss ticks (Tick)
system.cpu.icache.overallMissLatency::cpu.inst    746866000                       # number of overall miss ticks (Tick)
system.cpu.icache.overallMissLatency::total    746866000                       # number of overall miss ticks (Tick)
system.cpu.icache.demandAccesses::cpu.inst     39542654                       # number of demand (read+write) accesses (Count)
system.cpu.icache.demandAccesses::total      39542654                       # number of demand (read+write) accesses (Count)
system.cpu.icache.overallAccesses::cpu.inst     39542654                       # number of overall (read+write) accesses (Count)
system.cpu.icache.overallAccesses::total     39542654                       # number of overall (read+write) accesses (Count)
system.cpu.icache.demandMissRate::cpu.inst     0.000539                       # miss rate for demand accesses (Ratio)
system.cpu.icache.demandMissRate::total      0.000539                       # miss rate for demand accesses (Ratio)
system.cpu.icache.overallMissRate::cpu.inst     0.000539                       # miss rate for overall accesses (Ratio)
system.cpu.icache.overallMissRate::total     0.000539                       # miss rate for overall accesses (Ratio)
system.cpu.icache.demandAvgMissLatency::cpu.inst 35069.070761                       # average overall miss latency in ticks ((Tick/Count))
system.cpu.icache.demandAvgMissLatency::total 35069.070761                       # average overall miss latency in ticks ((Tick/Count))
system.cpu.icache.overallAvgMissLatency::cpu.inst 35069.070761                       # average overall miss latency ((Tick/Count))
system.cpu.icache.overallAvgMissLatency::total 35069.070761                       # average overall miss latency ((Tick/Count))
system.cpu.icache.blockedCycles::no_mshrs           15                       # number of cycles access was blocked (Cycle)
system.cpu.icache.blockedCycles::no_targets            0                       # number of cycles access was blocked (Cycle)
system.cpu.icache.blockedCauses::no_mshrs            2                       # number of times access was blocked (Count)
system.cpu.icache.blockedCauses::no_targets            0                       # number of times access was blocked (Count)
system.cpu.icache.avgBlocked::no_mshrs       7.500000                       # average number of cycles each access was blocked ((Cycle/Count))
system.cpu.icache.avgBlocked::no_targets          nan                       # average number of cycles each access was blocked ((Cycle/Count))
system.cpu.icache.demandMshrHits::cpu.inst          642                       # number of demand (read+write) MSHR hits (Count)
system.cpu.icache.demandMshrHits::total           642                       # number of demand (read+write) MSHR hits (Count)
system.cpu.icache.overallMshrHits::cpu.inst          642                       # number of overall MSHR hits (Count)
system.cpu.icache.overallMshrHits::total          642                       # number of overall MSHR hits (Count)
system.cpu.icache.demandMshrMisses::cpu.inst        20655                       # number of demand (read+write) MSHR misses (Count)
system.cpu.icache.demandMshrMisses::total        20655                       # number of demand (read+write) MSHR misses (Count)
system.cpu.icache.overallMshrMisses::cpu.inst        20655                       # number of overall MSHR misses (Count)
system.cpu.icache.overallMshrMisses::total        20655                       # number of overall MSHR misses (Count)
system.cpu.icache.demandMshrMissLatency::cpu.inst    688229500                       # number of demand (read+write) MSHR miss ticks (Tick)
system.cpu.icache.demandMshrMissLatency::total    688229500                       # number of demand (read+write) MSHR miss ticks (Tick)
system.cpu.icache.overallMshrMissLatency::cpu.inst    688229500                       # number of overall MSHR miss ticks (Tick)
system.cpu.icache.overallMshrMissLatency::total    688229500                       # number of overall MSHR miss ticks (Tick)
system.cpu.icache.demandMshrMissRate::cpu.inst     0.000522                       # mshr miss ratio for demand accesses (Ratio)
system.cpu.icache.demandMshrMissRate::total     0.000522                       # mshr miss ratio for demand accesses (Ratio)
system.cpu.icache.overallMshrMissRate::cpu.inst     0.000522                       # mshr miss ratio for overall accesses (Ratio)
system.cpu.icache.overallMshrMissRate::total     0.000522                       # mshr miss ratio for overall accesses (Ratio)
system.cpu.icache.demandAvgMshrMissLatency::cpu.inst 33320.237231                       # average overall mshr miss latency ((Tick/Count))
system.cpu.icache.demandAvgMshrMissLatency::total 33320.237231                       # average overall mshr miss latency ((Tick/Count))
system.cpu.icache.overallAvgMshrMissLatency::cpu.inst 33320.237231                       # average overall mshr miss latency ((Tick/Count))
system.cpu.icache.overallAvgMshrMissLatency::total 33320.237231                       # average overall mshr miss latency ((Tick/Count))
system.cpu.icache.replacements                  20654                       # number of replacements (Count)
system.cpu.icache.ReadReq.hits::cpu.inst     39521357                       # number of ReadReq hits (Count)
system.cpu.icache.ReadReq.hits::total        39521357                       # number of ReadReq hits (Count)
system.cpu.icache.ReadReq.misses::cpu.inst        21297                       # number of ReadReq misses (Count)
system.cpu.icache.ReadReq.misses::total         21297                       # number of ReadReq misses (Count)
system.cpu.icache.ReadReq.missLatency::cpu.inst    746866000                       # number of ReadReq miss ticks (Tick)
system.cpu.icache.ReadReq.missLatency::total    746866000                       # number of ReadReq miss ticks (Tick)
system.cpu.icache.ReadReq.accesses::cpu.inst     39542654                       # number of ReadReq accesses(hits+misses) (Count)
system.cpu.icache.ReadReq.accesses::total     39542654                       # number of ReadReq accesses(hits+misses) (Count)
system.cpu.icache.ReadReq.missRate::cpu.inst     0.000539                       # miss rate for ReadReq accesses (Ratio)
system.cpu.icache.ReadReq.missRate::total     0.000539                       # miss rate for ReadReq accesses (Ratio)
system.cpu.icache.ReadReq.avgMissLatency::cpu.inst 35069.070761                       # average ReadReq miss latency ((Tick/Count))
system.cpu.icache.ReadReq.avgMissLatency::total 35069.070761                       # average ReadReq miss latency ((Tick/Count))
system.cpu.icache.ReadReq.mshrHits::cpu.inst          642                       # number of ReadReq MSHR hits (Count)
system.cpu.icache.ReadReq.mshrHits::total          642                       # number of ReadReq MSHR hits (Count)
system.cpu.icache.ReadReq.mshrMisses::cpu.inst        20655                       # number of ReadReq MSHR misses (Count)
system.cpu.icache.ReadReq.mshrMisses::total        20655                       # number of ReadReq MSHR misses (Count)
system.cpu.icache.ReadReq.mshrMissLatency::cpu.inst    688229500                       # number of ReadReq MSHR miss ticks (Tick)
system.cpu.icache.ReadReq.mshrMissLatency::total    688229500                       # number of ReadReq MSHR miss ticks (Tick)
system.cpu.icache.ReadReq.mshrMissRate::cpu.inst     0.000522                       # mshr miss rate for ReadReq accesses (Ratio)
system.cpu.icache.ReadReq.mshrMissRate::total     0.000522                       # mshr miss rate for ReadReq accesses (Ratio)
system.cpu.icache.ReadReq.avgMshrMissLatency::cpu.inst 33320.237231                       # average ReadReq mshr miss latency ((Tick/Count))
system.cpu.icache.ReadReq.avgMshrMissLatency::total 33320.237231                       # average ReadReq mshr miss latency ((Tick/Count))
system.cpu.icache.power_state.pwrStateResidencyTicks::UNDEFINED  78528613500                       # Cumulative time (in ticks) in various power states (Tick)
system.cpu.icache.tags.tagsInUse            63.999950                       # Average ticks per tags in use ((Tick/Count))
system.cpu.icache.tags.totalRefs             35794190                       # Total number of references to valid blocks. (Count)
system.cpu.icache.tags.sampledRefs              20655                       # Sample count of references to valid blocks. (Count)
system.cpu.icache.tags.avgRefs            1732.955217                       # Average number of references to valid blocks. ((Count/Count))
system.cpu.icache.tags.warmupTick            10998500                       # The tick when the warmup percentage was hit. (Tick)
system.cpu.icache.tags.occupancies::cpu.inst    63.999950                       # Average occupied blocks per tick, per requestor ((Count/Tick))
system.cpu.icache.tags.avgOccs::cpu.inst     0.999999                       # Average percentage of cache occupancy ((Ratio/Tick))
system.cpu.icache.tags.avgOccs::total        0.999999                       # Average percentage of cache occupancy ((Ratio/Tick))
system.cpu.icache.tags.occupanciesTaskId::1024           64                       # Occupied blocks per task id (Count)
system.cpu.icache.tags.ageTaskId_1024::0           38                       # Occupied blocks per task id, per block age (Count)
system.cpu.icache.tags.ageTaskId_1024::2            7                       # Occupied blocks per task id, per block age (Count)
system.cpu.icache.tags.ageTaskId_1024::4           19                       # Occupied blocks per task id, per block age (Count)
system.cpu.icache.tags.ratioOccsTaskId::1024            1                       # Ratio of occupied blocks and all blocks, per task id (Ratio)
system.cpu.icache.tags.tagAccesses           79105963                       # Number of tag accesses (Count)
system.cpu.icache.tags.dataAccesses          79105963                       # Number of data accesses (Count)
system.cpu.icache.tags.power_state.pwrStateResidencyTicks::UNDEFINED  78528613500                       # Cumulative time (in ticks) in various power states (Tick)
system.cpu.iew.idleCycles                           0                       # Number of cycles IEW is idle (Cycle)
system.cpu.iew.squashCycles                   4034752                       # Number of cycles IEW is squashing (Cycle)
system.cpu.iew.blockCycles                   30966733                       # Number of cycles IEW is blocking (Cycle)
system.cpu.iew.unblockCycles                     2440                       # Number of cycles IEW is unblocking (Cycle)
system.cpu.iew.dispatchedInsts              519516999                       # Number of instructions dispatched to IQ (Count)
system.cpu.iew.dispSquashedInsts                 4844                       # Number of squashed instructions skipped by dispatch (Count)
system.cpu.iew.dispLoadInsts                166278902                       # Number of dispatched load instructions (Count)
system.cpu.iew.dispStoreInsts                40745413                       # Number of dispatched store instructions (Count)
system.cpu.iew.dispNonSpecInsts                    18                       # Number of dispatched non-speculative instructions (Count)
system.cpu.iew.iqFullEvents                      1493                       # Number of times the IQ has become full, causing a stall (Count)
system.cpu.iew.lsqFullEvents                      433                       # Number of times the LSQ has become full, causing a stall (Count)
system.cpu.iew.memOrderViolationEvents           7097                       # Number of memory order violations (Count)
system.cpu.iew.predictedTakenIncorrect        1895510                       # Number of branches that were predicted taken incorrectly (Count)
system.cpu.iew.predictedNotTakenIncorrect      2599297                       # Number of branches that were predicted not taken incorrectly (Count)
system.cpu.iew.branchMispredicts              4494807                       # Number of branch mispredicts detected at execute (Count)
system.cpu.iew.instsToCommit                413020804                       # Cumulative count of insts sent to commit (Count)
system.cpu.iew.writebackCount               408079812                       # Cumulative count of insts written-back (Count)
system.cpu.iew.producerInst                 343471136                       # Number of instructions producing a value (Count)
system.cpu.iew.consumerInst                 418018966                       # Number of instructions consuming a value (Count)
system.cpu.iew.wbRate                        2.603648                       # Insts written-back per cycle ((Count/Cycle))
system.cpu.iew.wbFanout                      0.821664                       # Average fanout of values written-back ((Count/Count))
system.cpu.interrupts.clk_domain.clock           8000                       # Clock period in ticks (Tick)
system.cpu.lsq0.forwLoads                    52268082                       # Number of loads that had data forwarded from stores (Count)
system.cpu.lsq0.squashedLoads                86495948                       # Number of loads squashed (Count)
system.cpu.lsq0.ignoredResponses               219782                       # Number of memory responses ignored because the instruction is squashed (Count)
system.cpu.lsq0.memOrderViolation                7097                       # Number of memory ordering violations (Count)
system.cpu.lsq0.squashedStores               21392381                       # Number of stores squashed (Count)
system.cpu.lsq0.rescheduledLoads                  297                       # Number of loads that were rescheduled (Count)
system.cpu.lsq0.blockedByCache                    697                       # Number of times an access to memory failed due to the cache being blocked (Count)
system.cpu.lsq0.loadToUse::samples           79782952                       # Distribution of cycle latency between the first time a load is issued and its completion (Unspecified)
system.cpu.lsq0.loadToUse::mean              2.958631                       # Distribution of cycle latency between the first time a load is issued and its completion (Unspecified)
system.cpu.lsq0.loadToUse::stdev             2.096224                       # Distribution of cycle latency between the first time a load is issued and its completion (Unspecified)
system.cpu.lsq0.loadToUse::0-9               79345319     99.45%     99.45% # Distribution of cycle latency between the first time a load is issued and its completion (Unspecified)
system.cpu.lsq0.loadToUse::10-19               147466      0.18%     99.64% # Distribution of cycle latency between the first time a load is issued and its completion (Unspecified)
system.cpu.lsq0.loadToUse::20-29               272428      0.34%     99.98% # Distribution of cycle latency between the first time a load is issued and its completion (Unspecified)
system.cpu.lsq0.loadToUse::30-39                 1209      0.00%     99.98% # Distribution of cycle latency between the first time a load is issued and its completion (Unspecified)
system.cpu.lsq0.loadToUse::40-49                 1582      0.00%     99.98% # Distribution of cycle latency between the first time a load is issued and its completion (Unspecified)
system.cpu.lsq0.loadToUse::50-59                 2535      0.00%     99.98% # Distribution of cycle latency between the first time a load is issued and its completion (Unspecified)
system.cpu.lsq0.loadToUse::60-69                 4015      0.01%     99.99% # Distribution of cycle latency between the first time a load is issued and its completion (Unspecified)
system.cpu.lsq0.loadToUse::70-79                 3560      0.00%     99.99% # Distribution of cycle latency between the first time a load is issued and its completion (Unspecified)
system.cpu.lsq0.loadToUse::80-89                  194      0.00%     99.99% # Distribution of cycle latency between the first time a load is issued and its completion (Unspecified)
system.cpu.lsq0.loadToUse::90-99                  328      0.00%     99.99% # Distribution of cycle latency between the first time a load is issued and its completion (Unspecified)
system.cpu.lsq0.loadToUse::100-109                612      0.00%    100.00% # Distribution of cycle latency between the first time a load is issued and its completion (Unspecified)
system.cpu.lsq0.loadToUse::110-119                694      0.00%    100.00% # Distribution of cycle latency between the first time a load is issued and its completion (Unspecified)
system.cpu.lsq0.loadToUse::120-129                564      0.00%    100.00% # Distribution of cycle latency between the first time a load is issued and its completion (Unspecified)
system.cpu.lsq0.loadToUse::130-139               1607      0.00%    100.00% # Distribution of cycle latency between the first time a load is issued and its completion (Unspecified)
system.cpu.lsq0.loadToUse::140-149                233      0.00%    100.00% # Distribution of cycle latency between the first time a load is issued and its completion (Unspecified)
system.cpu.lsq0.loadToUse::150-159                101      0.00%    100.00% # Distribution of cycle latency between the first time a load is issued and its completion (Unspecified)
system.cpu.lsq0.loadToUse::160-169                159      0.00%    100.00% # Distribution of cycle latency between the first time a load is issued and its completion (Unspecified)
system.cpu.lsq0.loadToUse::170-179                 18      0.00%    100.00% # Distribution of cycle latency between the first time a load is issued and its completion (Unspecified)
system.cpu.lsq0.loadToUse::180-189                  5      0.00%    100.00% # Distribution of cycle latency between the first time a load is issued and its completion (Unspecified)
system.cpu.lsq0.loadToUse::190-199                127      0.00%    100.00% # Distribution of cycle latency between the first time a load is issued and its completion (Unspecified)
system.cpu.lsq0.loadToUse::200-209                  5      0.00%    100.00% # Distribution of cycle latency between the first time a load is issued and its completion (Unspecified)
system.cpu.lsq0.loadToUse::210-219                 99      0.00%    100.00% # Distribution of cycle latency between the first time a load is issued and its completion (Unspecified)
system.cpu.lsq0.loadToUse::220-229                  4      0.00%    100.00% # Distribution of cycle latency between the first time a load is issued and its completion (Unspecified)
system.cpu.lsq0.loadToUse::230-239                  1      0.00%    100.00% # Distribution of cycle latency between the first time a load is issued and its completion (Unspecified)
system.cpu.lsq0.loadToUse::240-249                  5      0.00%    100.00% # Distribution of cycle latency between the first time a load is issued and its completion (Unspecified)
system.cpu.lsq0.loadToUse::250-259                  7      0.00%    100.00% # Distribution of cycle latency between the first time a load is issued and its completion (Unspecified)
system.cpu.lsq0.loadToUse::260-269                  3      0.00%    100.00% # Distribution of cycle latency between the first time a load is issued and its completion (Unspecified)
system.cpu.lsq0.loadToUse::270-279                  1      0.00%    100.00% # Distribution of cycle latency between the first time a load is issued and its completion (Unspecified)
system.cpu.lsq0.loadToUse::280-289                  2      0.00%    100.00% # Distribution of cycle latency between the first time a load is issued and its completion (Unspecified)
system.cpu.lsq0.loadToUse::overflows               69      0.00%    100.00% # Distribution of cycle latency between the first time a load is issued and its completion (Unspecified)
system.cpu.lsq0.loadToUse::min_value                2                       # Distribution of cycle latency between the first time a load is issued and its completion (Unspecified)
system.cpu.lsq0.loadToUse::max_value              706                       # Distribution of cycle latency between the first time a load is issued and its completion (Unspecified)
system.cpu.lsq0.loadToUse::total             79782952                       # Distribution of cycle latency between the first time a load is issued and its completion (Unspecified)
[...]
system.mem_ctrls.dram.numReads::cpu.inst         6888                       # Number of read requests responded to by this memory (Count)
system.mem_ctrls.dram.numReads::cpu.data        10812                       # Number of read requests responded to by this memory (Count)
system.mem_ctrls.dram.numReads::total           17700                       # Number of read requests responded to by this memory (Count)
system.mem_ctrls.dram.numWrites::writebacks         9192                       # Number of write requests responded to by this memory (Count)
system.mem_ctrls.dram.numWrites::total           9192                       # Number of write requests responded to by this memory (Count)
system.mem_ctrls.dram.bwRead::cpu.inst        5624669                       # Total read bandwidth from this memory ((Byte/Second))
system.mem_ctrls.dram.bwRead::cpu.data        8828967                       # Total read bandwidth from this memory ((Byte/Second))
system.mem_ctrls.dram.bwRead::total          14453636                       # Total read bandwidth from this memory ((Byte/Second))
system.mem_ctrls.dram.bwInstRead::cpu.inst      5624669                       # Instruction read bandwidth from this memory ((Byte/Second))
system.mem_ctrls.dram.bwInstRead::total       5624669                       # Instruction read bandwidth from this memory ((Byte/Second))
system.mem_ctrls.dram.bwWrite::writebacks      7506092                       # Write bandwidth from this memory ((Byte/Second))
system.mem_ctrls.dram.bwWrite::total          7506092                       # Write bandwidth from this memory ((Byte/Second))
system.mem_ctrls.dram.bwTotal::writebacks      7506092                       # Total bandwidth to/from this memory ((Byte/Second))
system.mem_ctrls.dram.bwTotal::cpu.inst       5624669                       # Total bandwidth to/from this memory ((Byte/Second))
system.mem_ctrls.dram.bwTotal::cpu.data       8828967                       # Total bandwidth to/from this memory ((Byte/Second))
system.mem_ctrls.dram.bwTotal::total         21959728                       # Total bandwidth to/from this memory ((Byte/Second))
system.mem_ctrls.dram.readBursts                12257                       # Number of DRAM read bursts (Count)
system.mem_ctrls.dram.writeBursts                8041                       # Number of DRAM write bursts (Count)
system.mem_ctrls.dram.perBankRdBursts::0         1739                       # Per bank write bursts (Count)
system.mem_ctrls.dram.perBankRdBursts::1          655                       # Per bank write bursts (Count)
system.mem_ctrls.dram.perBankRdBursts::2           11                       # Per bank write bursts (Count)
system.mem_ctrls.dram.perBankRdBursts::3           20                       # Per bank write bursts (Count)
system.mem_ctrls.dram.perBankRdBursts::4           48                       # Per bank write bursts (Count)
system.mem_ctrls.dram.perBankRdBursts::5          117                       # Per bank write bursts (Count)
system.mem_ctrls.dram.perBankRdBursts::6          530                       # Per bank write bursts (Count)
system.mem_ctrls.dram.perBankRdBursts::7          144                       # Per bank write bursts (Count)
system.mem_ctrls.dram.perBankRdBursts::8          959                       # Per bank write bursts (Count)
system.mem_ctrls.dram.perBankRdBursts::9         3044                       # Per bank write bursts (Count)
system.mem_ctrls.dram.perBankRdBursts::10         1009                       # Per bank write bursts (Count)
system.mem_ctrls.dram.perBankRdBursts::11          150                       # Per bank write bursts (Count)
system.mem_ctrls.dram.perBankRdBursts::12         1638                       # Per bank write bursts (Count)
system.mem_ctrls.dram.perBankRdBursts::13          638                       # Per bank write bursts (Count)
system.mem_ctrls.dram.perBankRdBursts::14          697                       # Per bank write bursts (Count)
system.mem_ctrls.dram.perBankRdBursts::15          858                       # Per bank write bursts (Count)
system.mem_ctrls.dram.perBankWrBursts::0            0                       # Per bank write bursts (Count)
system.mem_ctrls.dram.perBankWrBursts::1            8                       # Per bank write bursts (Count)
system.mem_ctrls.dram.perBankWrBursts::2            0                       # Per bank write bursts (Count)
system.mem_ctrls.dram.perBankWrBursts::3            0                       # Per bank write bursts (Count)
system.mem_ctrls.dram.perBankWrBursts::4           29                       # Per bank write bursts (Count)
system.mem_ctrls.dram.perBankWrBursts::5            9                       # Per bank write bursts (Count)
system.mem_ctrls.dram.perBankWrBursts::6          954                       # Per bank write bursts (Count)
system.mem_ctrls.dram.perBankWrBursts::7            0                       # Per bank write bursts (Count)
system.mem_ctrls.dram.perBankWrBursts::8         1496                       # Per bank write bursts (Count)
system.mem_ctrls.dram.perBankWrBursts::9         2907                       # Per bank write bursts (Count)
system.mem_ctrls.dram.perBankWrBursts::10         2591                       # Per bank write bursts (Count)
system.mem_ctrls.dram.perBankWrBursts::11            0                       # Per bank write bursts (Count)
system.mem_ctrls.dram.perBankWrBursts::12           26                       # Per bank write bursts (Count)
system.mem_ctrls.dram.perBankWrBursts::13           14                       # Per bank write bursts (Count)
system.mem_ctrls.dram.perBankWrBursts::14            0                       # Per bank write bursts (Count)
system.mem_ctrls.dram.perBankWrBursts::15            7                       # Per bank write bursts (Count)
system.mem_ctrls.dram.totQLat               123628500                       # Total ticks spent queuing (Tick)
system.mem_ctrls.dram.totBusLat              61285000                       # Total ticks spent in databus transfers (Tick)
system.mem_ctrls.dram.totMemAccLat          353447250                       # Total ticks spent from burst creation until serviced by the DRAM (Tick)
system.mem_ctrls.dram.avgQLat                10086.36                       # Average queueing delay per DRAM burst ((Tick/Count))
system.mem_ctrls.dram.avgBusLat               5000.00                       # Average bus latency per DRAM burst ((Tick/Count))
system.mem_ctrls.dram.avgMemAccLat           28836.36                       # Average memory access latency per DRAM burst ((Tick/Count))
system.mem_ctrls.dram.readRowHits                8520                       # Number of row buffer hits during reads (Count)
system.mem_ctrls.dram.writeRowHits               7195                       # Number of row buffer hits during writes (Count)
system.mem_ctrls.dram.readRowHitRate            69.51                       # Row buffer hit rate for reads (Ratio)
system.mem_ctrls.dram.writeRowHitRate           89.48                       # Row buffer hit rate for writes (Ratio)
system.mem_ctrls.dram.bytesPerActivate::samples         4586                       # Bytes accessed per row activation (Byte)
system.mem_ctrls.dram.bytesPerActivate::mean   283.715656                       # Bytes accessed per row activation (Byte)
system.mem_ctrls.dram.bytesPerActivate::gmean   193.027797                       # Bytes accessed per row activation (Byte)
system.mem_ctrls.dram.bytesPerActivate::stdev   269.438259                       # Bytes accessed per row activation (Byte)
system.mem_ctrls.dram.bytesPerActivate::0-127         1192     25.99%     25.99% # Bytes accessed per row activation (Byte)
system.mem_ctrls.dram.bytesPerActivate::128-255         1597     34.82%     60.82% # Bytes accessed per row activation (Byte)
system.mem_ctrls.dram.bytesPerActivate::256-383          488     10.64%     71.46% # Bytes accessed per row activation (Byte)
system.mem_ctrls.dram.bytesPerActivate::384-511          561     12.23%     83.69% # Bytes accessed per row activation (Byte)
system.mem_ctrls.dram.bytesPerActivate::512-639          226      4.93%     88.62% # Bytes accessed per row activation (Byte)
system.mem_ctrls.dram.bytesPerActivate::640-767           99      2.16%     90.78% # Bytes accessed per row activation (Byte)
system.mem_ctrls.dram.bytesPerActivate::768-895           46      1.00%     91.78% # Bytes accessed per row activation (Byte)
system.mem_ctrls.dram.bytesPerActivate::896-1023           44      0.96%     92.74% # Bytes accessed per row activation (Byte)
system.mem_ctrls.dram.bytesPerActivate::1024-1151          333      7.26%    100.00% # Bytes accessed per row activation (Byte)
system.mem_ctrls.dram.bytesPerActivate::total         4586                       # Bytes accessed per row activation (Byte)
system.mem_ctrls.dram.bytesRead                784448                       # Total bytes read (Byte)
system.mem_ctrls.dram.bytesWritten             514624                       # Total bytes written (Byte)
system.mem_ctrls.dram.avgRdBW               10.008939                       # Average DRAM read bandwidth in MiBytes/s ((Byte/Second))
system.mem_ctrls.dram.avgWrBW                6.566197                       # Average DRAM write bandwidth in MiBytes/s ((Byte/Second))
system.mem_ctrls.dram.peakBW                 12800.00                       # Theoretical peak bandwidth in MiByte/s ((Byte/Second))
system.mem_ctrls.dram.busUtil                    0.13                       # Data bus utilization in percentage (Ratio)
system.mem_ctrls.dram.busUtilRead                0.08                       # Data bus utilization in percentage for reads (Ratio)
system.mem_ctrls.dram.busUtilWrite               0.05                       # Data bus utilization in percentage for writes (Ratio)
system.mem_ctrls.dram.pageHitRate               77.42                       # Row buffer hit rate, read and write combined (Ratio)
system.mem_ctrls.dram.power_state.pwrStateResidencyTicks::UNDEFINED  78536420500                       # Cumulative time (in ticks) in various power states (Tick)
system.mem_ctrls.dram.rank0.actEnergy        10160220                       # Energy for activate commands per rank (pJ) (Joule)
system.mem_ctrls.dram.rank0.preEnergy         5381310                       # Energy for precharge commands per rank (pJ) (Joule)
system.mem_ctrls.dram.rank0.readEnergy       23733360                       # Energy for read commands per rank (pJ) (Joule)
system.mem_ctrls.dram.rank0.writeEnergy       5220000                       # Energy for write commands per rank (pJ) (Joule)
system.mem_ctrls.dram.rank0.refreshEnergy 6186966240.000001                       # Energy for refresh commands per rank (pJ) (Joule)
system.mem_ctrls.dram.rank0.actBackEnergy   2361297390                       # Energy for active background per rank (pJ) (Joule)
system.mem_ctrls.dram.rank0.preBackEnergy  28109570400                       # Energy for precharge background per rank (pJ) (Joule)
system.mem_ctrls.dram.rank0.actPowerDownEnergy            0                       # Energy for active power-down per rank (pJ) (Joule)
system.mem_ctrls.dram.rank0.prePowerDownEnergy            0                       # Energy for precharge power-down per rank (pJ) (Joule)
system.mem_ctrls.dram.rank0.selfRefreshEnergy            0                       # Energy for self refresh per rank (pJ) (Joule)
system.mem_ctrls.dram.rank0.totalEnergy   36702328920                       # Total energy per rank (pJ) (Joule)
system.mem_ctrls.dram.rank0.averagePower   468.292832                       # Core power per rank (mW) (Watt)
system.mem_ctrls.dram.rank0.totalIdleTime            0                       # Total Idle time Per DRAM Rank (Tick)
system.mem_ctrls.dram.rank0.pwrStateTime::IDLE  73052855750                       # Time in different power states (Tick)
system.mem_ctrls.dram.rank0.pwrStateTime::REF   2617160000                       # Time in different power states (Tick)
system.mem_ctrls.dram.rank0.pwrStateTime::SREF            0                       # Time in different power states (Tick)
system.mem_ctrls.dram.rank0.pwrStateTime::PRE_PDN            0                       # Time in different power states (Tick)
system.mem_ctrls.dram.rank0.pwrStateTime::ACT   2710273750                       # Time in different power states (Tick)
system.mem_ctrls.dram.rank0.pwrStateTime::ACT_PDN            0                       # Time in different power states (Tick)
system.mem_ctrls.dram.rank1.actEnergy        22769460                       # Energy for activate commands per rank (pJ) (Joule)
system.mem_ctrls.dram.rank1.preEnergy        12079485                       # Energy for precharge commands per rank (pJ) (Joule)
system.mem_ctrls.dram.rank1.readEnergy       64659840                       # Energy for read commands per rank (pJ) (Joule)
system.mem_ctrls.dram.rank1.writeEnergy      36754020                       # Energy for write commands per rank (pJ) (Joule)
system.mem_ctrls.dram.rank1.refreshEnergy 6186966240.000001                       # Energy for refresh commands per rank (pJ) (Joule)
system.mem_ctrls.dram.rank1.actBackEnergy   3248257860                       # Energy for active background per rank (pJ) (Joule)
system.mem_ctrls.dram.rank1.preBackEnergy  27362688480                       # Energy for precharge background per rank (pJ) (Joule)
system.mem_ctrls.dram.rank1.actPowerDownEnergy            0                       # Energy for active power-down per rank (pJ) (Joule)
system.mem_ctrls.dram.rank1.prePowerDownEnergy            0                       # Energy for precharge power-down per rank (pJ) (Joule)
system.mem_ctrls.dram.rank1.selfRefreshEnergy            0                       # Energy for self refresh per rank (pJ) (Joule)
system.mem_ctrls.dram.rank1.totalEnergy   36934175385                       # Total energy per rank (pJ) (Joule)
system.mem_ctrls.dram.rank1.averagePower   471.251010                       # Core power per rank (mW) (Watt)
system.mem_ctrls.dram.rank1.totalIdleTime            0                       # Total Idle time Per DRAM Rank (Tick)
system.mem_ctrls.dram.rank1.pwrStateTime::IDLE  71102927750                       # Time in different power states (Tick)
system.mem_ctrls.dram.rank1.pwrStateTime::REF   2617160000                       # Time in different power states (Tick)
system.mem_ctrls.dram.rank1.pwrStateTime::SREF            0                       # Time in different power states (Tick)
system.mem_ctrls.dram.rank1.pwrStateTime::PRE_PDN            0                       # Time in different power states (Tick)
system.mem_ctrls.dram.rank1.pwrStateTime::ACT   4660285750                       # Time in different power states (Tick)
system.mem_ctrls.dram.rank1.pwrStateTime::ACT_PDN            0                       # Time in different power states (Tick)
system.mem_ctrls.power_state.pwrStateResidencyTicks::UNDEFINED  78536420500                       # Cumulative time (in ticks) in various power states (Tick)
system.membus.transDist::ReadResp                9560                       # Transaction distribution (Count)
system.membus.transDist::WritebackDirty          9192                       # Transaction distribution (Count)
system.membus.transDist::CleanEvict              8510                       # Transaction distribution (Count)
system.membus.transDist::ReadExReq               8140                       # Transaction distribution (Count)
system.membus.transDist::ReadExResp              8140                       # Transaction distribution (Count)
system.membus.transDist::ReadSharedReq           9561                       # Transaction distribution (Count)
system.membus.pktCount_system.l2cache.mem_side_port::system.mem_ctrls.port        53103                       # Packet count per connected requestor and responder (Count)
system.membus.pktCount_system.l2cache.mem_side_port::total        53103                       # Packet count per connected requestor and responder (Count)
system.membus.pktCount::total                   53103                       # Packet count per connected requestor and responder (Count)
system.membus.pktSize_system.l2cache.mem_side_port::system.mem_ctrls.port      1721088                       # Cumulative packet size per connected requestor and responder (Byte)
system.membus.pktSize_system.l2cache.mem_side_port::total      1721088                       # Cumulative packet size per connected requestor and responder (Byte)
system.membus.pktSize::total                  1721088                       # Cumulative packet size per connected requestor and responder (Byte)
system.membus.snoops                                0                       # Total snoops (Count)
system.membus.snoopTraffic                          0                       # Total snoop traffic (Byte)
system.membus.snoopFanout::samples              17701                       # Request fanout histogram (Count)
system.membus.snoopFanout::mean                     0                       # Request fanout histogram (Count)
system.membus.snoopFanout::stdev                    0                       # Request fanout histogram (Count)
system.membus.snoopFanout::underflows               0      0.00%      0.00% # Request fanout histogram (Count)
system.membus.snoopFanout::0                    17701    100.00%    100.00% # Request fanout histogram (Count)
system.membus.snoopFanout::1                        0      0.00%    100.00% # Request fanout histogram (Count)
system.membus.snoopFanout::overflows                0      0.00%    100.00% # Request fanout histogram (Count)
system.membus.snoopFanout::min_value                0                       # Request fanout histogram (Count)
system.membus.snoopFanout::max_value                0                       # Request fanout histogram (Count)
system.membus.snoopFanout::total                17701                       # Request fanout histogram (Count)
system.membus.power_state.pwrStateResidencyTicks::UNDEFINED  78536420500                       # Cumulative time (in ticks) in various power states (Tick)
system.membus.reqLayer2.occupancy            36085500                       # Layer occupancy (ticks) (Tick)
system.membus.reqLayer2.utilization               0.0                       # Layer utilization (Ratio)
system.membus.respLayer1.occupancy           46617750                       # Layer occupancy (ticks) (Tick)
system.membus.respLayer1.utilization              0.0                       # Layer utilization (Ratio)
system.membus.snoop_filter.totRequests          35403                       # Total number of requests made to the snoop filter. (Count)
system.membus.snoop_filter.hitSingleRequests        17702                       # Number of requests hitting in the snoop filter with a single holder of the requested data. (Count)
system.membus.snoop_filter.hitMultiRequests            0                       # Number of requests hitting in the snoop filter with multiple (>1) holders of the requested data. (Count)
system.membus.snoop_filter.totSnoops                0                       # Total number of snoops made to the snoop filter. (Count)
system.membus.snoop_filter.hitSingleSnoops            0                       # Number of snoops hitting in the snoop filter with a single holder of the requested data. (Count)
system.membus.snoop_filter.hitMultiSnoops            0                       # Number of snoops hitting in the snoop filter with multiple (>1) holders of the requested data. (Count)
system.workload.inst.arm                            0                       # number of arm instructions executed (Count)
system.workload.inst.quiesce                        0                       # number of quiesce instructions executed (Count)

---------- End Simulation Statistics   ----------
