
---------- Begin Simulation Statistics ----------
simSeconds                                   0.076093                       # Number of seconds simulated (Second)
simTicks                                  76093086000                       # Number of ticks simulated (Tick)
finalTick                                 76267301000                       # Number of ticks from beginning of simulation (restored from checkpoints and never reset) (Tick)
simFreq                                  1000000000000                       # The number of ticks per simulated second ((Tick/Second))
hostSeconds                                    888.05                       # Real time elapsed on the host (Second)
hostTickRate                                 85685196                       # The number of ticks simulated per host second (ticks/s) ((Tick/Second))
hostMemory                                     921344                       # Number of bytes of host memory used (Byte)
simInsts                                    169334445                       # Number of instructions simulated (Count)
simOps                                      258654408                       # Number of ops (including micro ops) simulated (Count)
hostInstRate                                   190680                       # Simulator instruction rate (inst/s) ((Count/Second))
hostOpRate                                     291260                       # Simulator op (including micro ops) rate (op/s) ((Count/Second))
system.clk_domain.clock                           500                       # Clock period in ticks (Tick)
system.clk_domain.voltage_domain.voltage            1                       # Voltage in Volts (Volt)
system.cpu.numCycles                        152186172                       # Number of cpu cycles simulated (Cycle)
system.cpu.numWorkItemsStarted                      0                       # Number of work items this cpu started (Count)
system.cpu.numWorkItemsCompleted                    0                       # Number of work items this cpu completed (Count)
system.cpu.instsAdded                       416125215                       # Number of instructions added to the IQ (excludes non-spec) (Count)
system.cpu.nonSpecInstsAdded                       25                       # Number of non-speculative instructions added to the IQ (Count)
system.cpu.instsIssued                      370510650                       # Number of instructions issued (Count)
system.cpu.squashedInstsIssued                  13668                       # Number of squashed instructions issued (Count)
system.cpu.squashedInstsExamined            157643152                       # Number of squashed instructions iterated over during squash; mainly for profiling (Count)
system.cpu.squashedOperandsExamined         242453109                       # Number of squashed operands that are examined and possibly removed from graph (Count)
system.cpu.squashedNonSpecRemoved                  15                       # Number of squashed non-spec instructions that were removed (Count)
system.cpu.numIssuedDist::samples           151489495                       # Number of insts issued each cycle (Count)
system.cpu.numIssuedDist::mean               2.445784                       # Number of insts issued each cycle (Count)
system.cpu.numIssuedDist::stdev              2.112792                       # Number of insts issued each cycle (Count)
system.cpu.numIssuedDist::underflows                0      0.00%      0.00% # Number of insts issued each cycle (Count)
system.cpu.numIssuedDist::0                  44956731     29.68%     29.68% # Number of insts issued each cycle (Count)
system.cpu.numIssuedDist::1                  13182514      8.70%     38.38% # Number of insts issued each cycle (Count)
system.cpu.numIssuedDist::2                  20416354     13.48%     51.86% # Number of insts issued each cycle (Count)
system.cpu.numIssuedDist::3                  22797389     15.05%     66.90% # Number of insts issued each cycle (Count)
system.cpu.numIssuedDist::4                  22638352     14.94%     81.85% # Number of insts issued each cycle (Count)
system.cpu.numIssuedDist::5                  12785405      8.44%     90.29% # Number of insts issued each cycle (Count)
system.cpu.numIssuedDist::6                  10060152      6.64%     96.93% # Number of insts issued each cycle (Count)
system.cpu.numIssuedDist::7                   3958868      2.61%     99.54% # Number of insts issued each cycle (Count)
system.cpu.numIssuedDist::8                    693730      0.46%    100.00% # Number of insts issued each cycle (Count)
system.cpu.numIssuedDist::overflows                 0      0.00%    100.00% # Number of insts issued each cycle (Count)
system.cpu.numIssuedDist::min_value                 0                       # Number of insts issued each cycle (Count)
system.cpu.numIssuedDist::max_value                 8                       # Number of insts issued each cycle (Count)
system.cpu.numIssuedDist::total             151489495                       # Number of insts issued each cycle (Count)
system.cpu.statFuBusy::No_OpClass                   0      0.00%      0.00% # attempts to use FU when none available (Count)
system.cpu.statFuBusy::IntAlu                       0      0.00%      0.00% # attempts to use FU when none available (Count)
system.cpu.statFuBusy::IntMult                      0      0.00%      0.00% # attempts to use FU when none available (Count)
system.cpu.statFuBusy::IntDiv                       0      0.00%      0.00% # attempts to use FU when none available (Count)
system.cpu.statFuBusy::FloatAdd                     0      0.00%      0.00% # attempts to use FU when none available (Count)
system.cpu.statFuBusy::FloatCmp                     0      0.00%      0.00% # attempts to use FU when none available (Count)
system.cpu.statFuBusy::FloatCvt                     0      0.00%      0.00% # attempts to use FU when none available (Count)
system.cpu.statFuBusy::FloatMult                    0      0.00%      0.00% # attempts to use FU when none available (Count)
system.cpu.statFuBusy::FloatMultAcc                 0      0.00%      0.00% # attempts to use FU when none available (Count)
system.cpu.statFuBusy::FloatDiv                     0      0.00%      0.00% # attempts to use FU when none available (Count)
system.cpu.statFuBusy::FloatMisc                    0      0.00%      0.00% # attempts to use FU when none available (Count)
system.cpu.statFuBusy::FloatSqrt                    0      0.00%      0.00% # attempts to use FU when none available (Count)
system.cpu.statFuBusy::SimdAdd                      0      0.00%      0.00% # attempts to use FU when none available (Count)
system.cpu.statFuBusy::SimdAddAcc                   0      0.00%      0.00% # attempts to use FU when none available (Count)
system.cpu.statFuBusy::SimdAlu                      0      0.00%      0.00% # attempts to use FU when none available (Count)
system.cpu.statFuBusy::SimdCmp                      0      0.00%      0.00% # attempts to use FU when none available (Count)
system.cpu.statFuBusy::SimdCvt                    501      0.04%      0.04% # attempts to use FU when none available (Count)
system.cpu.statFuBusy::SimdMisc                     0      0.00%      0.04% # attempts to use FU when none available (Count)
system.cpu.statFuBusy::SimdMult                     0      0.00%      0.04% # attempts to use FU when none available (Count)
system.cpu.statFuBusy::SimdMultAcc                  0      0.00%      0.04% # attempts to use FU when none available (Count)
system.cpu.statFuBusy::SimdShift                    0      0.00%      0.04% # attempts to use FU when none available (Count)
system.cpu.statFuBusy::SimdShiftAcc                 0      0.00%      0.04% # attempts to use FU when none available (Count)
system.cpu.statFuBusy::SimdDiv                      0      0.00%      0.04% # attempts to use FU when none available (Count)
system.cpu.statFuBusy::SimdSqrt                     0      0.00%      0.04% # attempts to use FU when none available (Count)
system.cpu.statFuBusy::SimdFloatAdd                 0      0.00%      0.04% # attempts to use FU when none available (Count)
system.cpu.statFuBusy::SimdFloatAlu                 0      0.00%      0.04% # attempts to use FU when none available (Count)
system.cpu.statFuBusy::SimdFloatCmp                 0      0.00%      0.04% # attempts to use FU when none available (Count)
system.cpu.statFuBusy::SimdFloatCvt                 0      0.00%      0.04% # attempts to use FU when none available (Count)
system.cpu.statFuBusy::SimdFloatDiv                 0      0.00%      0.04% # attempts to use FU when none available (Count)
system.cpu.statFuBusy::SimdFloatMisc                0      0.00%      0.04% # attempts to use FU when none available (Count)
system.cpu.statFuBusy::SimdFloatMult                0      0.00%      0.04% # attempts to use FU when none available (Count)
system.cpu.statFuBusy::SimdFloatMultAcc             0      0.00%      0.04% # attempts to use FU when none available (Count)
system.cpu.statFuBusy::SimdFloatSqrt                0      0.00%      0.04% # attempts to use FU when none available (Count)
system.cpu.statFuBusy::SimdReduceAdd                0      0.00%      0.04% # attempts to use FU when none available (Count)
system.cpu.statFuBusy::SimdReduceAlu                0      0.00%      0.04% # attempts to use FU when none available (Count)
system.cpu.statFuBusy::SimdReduceCmp                0      0.00%      0.04% # attempts to use FU when none available (Count)
system.cpu.statFuBusy::SimdFloatReduceAdd            0      0.00%      0.04% # attempts to use FU when none available (Count)
system.cpu.statFuBusy::SimdFloatReduceCmp            0      0.00%      0.04% # attempts to use FU when none available (Count)
system.cpu.statFuBusy::SimdAes                      0      0.00%      0.04% # attempts to use FU when none available (Count)
system.cpu.statFuBusy::SimdAesMix                   0      0.00%      0.04% # attempts to use FU when none available (Count)
system.cpu.statFuBusy::SimdSha1Hash                 0      0.00%      0.04% # attempts to use FU when none available (Count)
system.cpu.statFuBusy::SimdSha1Hash2                0      0.00%      0.04% # attempts to use FU when none available (Count)
system.cpu.statFuBusy::SimdSha256Hash               0      0.00%      0.04% # attempts to use FU when none available (Count)
system.cpu.statFuBusy::SimdSha256Hash2              0      0.00%      0.04% # attempts to use FU when none available (Count)
system.cpu.statFuBusy::SimdShaSigma2                0      0.00%      0.04% # attempts to use FU when none available (Count)
system.cpu.statFuBusy::SimdShaSigma3                0      0.00%      0.04% # attempts to use FU when none available (Count)
system.cpu.statFuBusy::SimdPredAlu                  0      0.00%      0.04% # attempts to use FU when none available (Count)
system.cpu.statFuBusy::MemRead                1261436     91.34%     91.38% # attempts to use FU when none available (Count)
system.cpu.statFuBusy::MemWrite                118776      8.60%     99.98% # attempts to use FU when none available (Count)
system.cpu.statFuBusy::FloatMemRead                 9      0.00%     99.98% # attempts to use FU when none available (Count)
system.cpu.statFuBusy::FloatMemWrite              306      0.02%    100.00% # attempts to use FU when none available (Count)
system.cpu.statFuBusy::IprAccess                    0      0.00%    100.00% # attempts to use FU when none available (Count)
system.cpu.statFuBusy::InstPrefetch                 0      0.00%    100.00% # attempts to use FU when none available (Count)
system.cpu.statIssuedInstType_0::No_OpClass         9104      0.00%      0.00% # Number of instructions issued per FU type, per thread (Count)
system.cpu.statIssuedInstType_0::IntAlu     219663248     59.29%     59.29% # Number of instructions issued per FU type, per thread (Count)
system.cpu.statIssuedInstType_0::IntMult      1502192      0.41%     59.69% # Number of instructions issued per FU type, per thread (Count)
system.cpu.statIssuedInstType_0::IntDiv          2133      0.00%     59.70% # Number of instructions issued per FU type, per thread (Count)
system.cpu.statIssuedInstType_0::FloatAdd          708      0.00%     59.70% # Number of instructions issued per FU type, per thread (Count)
system.cpu.statIssuedInstType_0::FloatCmp            0      0.00%     59.70% # Number of instructions issued per FU type, per thread (Count)
system.cpu.statIssuedInstType_0::FloatCvt           16      0.00%     59.70% # Number of instructions issued per FU type, per thread (Count)
system.cpu.statIssuedInstType_0::FloatMult            0      0.00%     59.70% # Number of instructions issued per FU type, per thread (Count)
system.cpu.statIssuedInstType_0::FloatMultAcc            0      0.00%     59.70% # Number of instructions issued per FU type, per thread (Count)
system.cpu.statIssuedInstType_0::FloatDiv            0      0.00%     59.70% # Number of instructions issued per FU type, per thread (Count)
system.cpu.statIssuedInstType_0::FloatMisc            0      0.00%     59.70% # Number of instructions issued per FU type, per thread (Count)
system.cpu.statIssuedInstType_0::FloatSqrt            0      0.00%     59.70% # Number of instructions issued per FU type, per thread (Count)
system.cpu.statIssuedInstType_0::SimdAdd            4      0.00%     59.70% # Number of instructions issued per FU type, per thread (Count)
system.cpu.statIssuedInstType_0::SimdAddAcc            0      0.00%     59.70% # Number of instructions issued per FU type, per thread (Count)
system.cpu.statIssuedInstType_0::SimdAlu         4310      0.00%     59.70% # Number of instructions issued per FU type, per thread (Count)
system.cpu.statIssuedInstType_0::SimdCmp            0      0.00%     59.70% # Number of instructions issued per FU type, per thread (Count)
system.cpu.statIssuedInstType_0::SimdCvt         6218      0.00%     59.70% # Number of instructions issued per FU type, per thread (Count)
system.cpu.statIssuedInstType_0::SimdMisc         7610      0.00%     59.70% # Number of instructions issued per FU type, per thread (Count)
system.cpu.statIssuedInstType_0::SimdMult            0      0.00%     59.70% # Number of instructions issued per FU type, per thread (Count)
system.cpu.statIssuedInstType_0::SimdMultAcc            0      0.00%     59.70% # Number of instructions issued per FU type, per thread (Count)
system.cpu.statIssuedInstType_0::SimdShift            0      0.00%     59.70% # Number of instructions issued per FU type, per thread (Count)
system.cpu.statIssuedInstType_0::SimdShiftAcc            0      0.00%     59.70% # Number of instructions issued per FU type, per thread (Count)
system.cpu.statIssuedInstType_0::SimdDiv            0      0.00%     59.70% # Number of instructions issued per FU type, per thread (Count)
system.cpu.statIssuedInstType_0::SimdSqrt            0      0.00%     59.70% # Number of instructions issued per FU type, per thread (Count)
system.cpu.statIssuedInstType_0::SimdFloatAdd            0      0.00%     59.70% # Number of instructions issued per FU type, per thread (Count)
system.cpu.statIssuedInstType_0::SimdFloatAlu            0      0.00%     59.70% # Number of instructions issued per FU type, per thread (Count)
system.cpu.statIssuedInstType_0::SimdFloatCmp            0      0.00%     59.70% # Number of instructions issued per FU type, per thread (Count)
system.cpu.statIssuedInstType_0::SimdFloatCvt            0      0.00%     59.70% # Number of instructions issued per FU type, per thread (Count)
system.cpu.statIssuedInstType_0::SimdFloatDiv            0      0.00%     59.70% # Number of instructions issued per FU type, per thread (Count)
system.cpu.statIssuedInstType_0::SimdFloatMisc            0      0.00%     59.70% # Number of instructions issued per FU type, per thread (Count)
system.cpu.statIssuedInstType_0::SimdFloatMult            0      0.00%     59.70% # Number of instructions issued per FU type, per thread (Count)
system.cpu.statIssuedInstType_0::SimdFloatMultAcc            0      0.00%     59.70% # Number of instructions issued per FU type, per thread (Count)
system.cpu.statIssuedInstType_0::SimdFloatSqrt            0      0.00%     59.70% # Number of instructions issued per FU type, per thread (Count)
system.cpu.statIssuedInstType_0::SimdReduceAdd            0      0.00%     59.70% # Number of instructions issued per FU type, per thread (Count)
system.cpu.statIssuedInstType_0::SimdReduceAlu            0      0.00%     59.70% # Number of instructions issued per FU type, per thread (Count)
system.cpu.statIssuedInstType_0::SimdReduceCmp            0      0.00%     59.70% # Number of instructions issued per FU type, per thread (Count)
system.cpu.statIssuedInstType_0::SimdFloatReduceAdd            0      0.00%     59.70% # Number of instructions issued per FU type, per thread (Count)
system.cpu.statIssuedInstType_0::SimdFloatReduceCmp            0      0.00%     59.70% # Number of instructions issued per FU type, per thread (Count)
system.cpu.statIssuedInstType_0::SimdAes            0      0.00%     59.70% # Number of instructions issued per FU type, per thread (Count)
system.cpu.statIssuedInstType_0::SimdAesMix            0      0.00%     59.70% # Number of instructions issued per FU type, per thread (Count)
system.cpu.statIssuedInstType_0::SimdSha1Hash            0      0.00%     59.70% # Number of instructions issued per FU type, per thread (Count)
system.cpu.statIssuedInstType_0::SimdSha1Hash2            0      0.00%     59.70% # Number of instructions issued per FU type, per thread (Count)
system.cpu.statIssuedInstType_0::SimdSha256Hash            0      0.00%     59.70% # Number of instructions issued per FU type, per thread (Count)
system.cpu.statIssuedInstType_0::SimdSha256Hash2            0      0.00%     59.70% # Number of instructions issued per FU type, per thread (Count)
system.cpu.statIssuedInstType_0::SimdShaSigma2            0      0.00%     59.70% # Number of instructions issued per FU type, per thread (Count)
system.cpu.statIssuedInstType_0::SimdShaSigma3            0      0.00%     59.70% # Number of instructions issued per FU type, per thread (Count)
system.cpu.statIssuedInstType_0::SimdPredAlu            0      0.00%     59.70% # Number of instructions issued per FU type, per thread (Count)
system.cpu.statIssuedInstType_0::MemRead    122663016     33.11%     92.81% # Number of instructions issued per FU type, per thread (Count)
system.cpu.statIssuedInstType_0::MemWrite     26644200      7.19%    100.00% # Number of instructions issued per FU type, per thread (Count)
system.cpu.statIssuedInstType_0::FloatMemRead         5356      0.00%    100.00% # Number of instructions issued per FU type, per thread (Count)
system.cpu.statIssuedInstType_0::FloatMemWrite         2535      0.00%    100.00% # Number of instructions issued per FU type, per thread (Count)
system.cpu.statIssuedInstType_0::IprAccess            0      0.00%    100.00% # Number of instructions issued per FU type, per thread (Count)
system.cpu.statIssuedInstType_0::InstPrefetch            0      0.00%    100.00% # Number of instructions issued per FU type, per thread (Count)
system.cpu.statIssuedInstType_0::total      370510650                       # Number of instructions issued per FU type, per thread (Count)
system.cpu.issueRate                         2.434588                       # Inst issue rate ((Count/Cycle))
system.cpu.fuBusy                             1381028                       # FU busy when requested (Count)
system.cpu.fuBusyRate                        0.003727                       # FU busy rate (busy events/executed inst) ((Count/Count))
system.cpu.intInstQueueReads                893843857                       # Number of integer instruction queue reads (Count)
system.cpu.intInstQueueWrites               573734980                       # Number of integer instruction queue writes (Count)
system.cpu.intInstQueueWakeupAccesses       356225938                       # Number of integer instruction queue wakeup accesses (Count)
system.cpu.fpInstQueueReads                     61633                       # Number of floating instruction queue reads (Count)
system.cpu.fpInstQueueWrites                    37912                       # Number of floating instruction queue writes (Count)
system.cpu.fpInstQueueWakeupAccesses            29245                       # Number of floating instruction queue wakeup accesses (Count)
system.cpu.vecInstQueueReads                        0                       # Number of vector instruction queue reads (Count)
system.cpu.vecInstQueueWrites                       0                       # Number of vector instruction queue writes (Count)
system.cpu.vecInstQueueWakeupAccesses               0                       # Number of vector instruction queue wakeup accesses (Count)
system.cpu.intAluAccesses                   371851599                       # Number of integer alu accesses (Count)
system.cpu.fpAluAccesses                        30975                       # Number of floating point alu accesses (Count)
system.cpu.vecAluAccesses                           0                       # Number of vector alu accesses (Count)
system.cpu.numInsts                         362424088                       # Number of executed instructions (Count)
system.cpu.numLoadInsts                     119360586                       # Number of load instructions executed (Count)
system.cpu.numSquashedInsts                   8086561                       # Number of squashed instructions skipped in execute (Count)
system.cpu.numSwp                                   0                       # Number of swp insts executed (Count)
system.cpu.numNop                                   0                       # Number of nop insts executed (Count)
system.cpu.numRefs                          144249530                       # Number of memory reference insts executed (Count)
system.cpu.numBranches                       22458488                       # Number of branches executed (Count)
system.cpu.numStoreInsts                     24888944                       # Number of stores executed (Count)
system.cpu.numRate                           2.381452                       # Inst execution rate ((Count/Cycle))
system.cpu.timesIdled                           17143                       # Number of times that the entire CPU went into an idle state and unscheduled itself (Count)
system.cpu.idleCycles                          696677                       # Total number of cycles that the CPU has spent unscheduled due to idling (Cycle)
system.cpu.committedInsts                   169239831                       # Number of Instructions Simulated (Count)
system.cpu.committedOps                     258482080                       # Number of Ops (including micro ops) Simulated (Count)
system.cpu.cpi                               0.899234                       # CPI: Cycles Per Instruction ((Cycle/Count))
system.cpu.totalCpi                          0.899234                       # CPI: Total CPI of All Threads ((Cycle/Count))
system.cpu.ipc                               1.112058                       # IPC: Instructions Per Cycle ((Count/Cycle))
system.cpu.totalIpc                          1.112058                       # IPC: Total IPC of All Threads ((Count/Cycle))
system.cpu.intRegfileReads                  436014569                       # Number of integer regfile reads (Count)
system.cpu.intRegfileWrites                 293794588                       # Number of integer regfile writes (Count)
system.cpu.fpRegfileReads                       49055                       # Number of floating regfile reads (Count)
system.cpu.fpRegfileWrites                      24390                       # Number of floating regfile writes (Count)
system.cpu.ccRegfileReads                    86952427                       # number of cc regfile reads (Count)
system.cpu.ccRegfileWrites                  115057532                       # number of cc regfile writes (Count)
system.cpu.miscRegfileReads                 195179220                       # number of misc regfile reads (Count)
system.cpu.miscRegfileWrites                        9                       # number of misc regfile writes (Count)
system.cpu.MemDepUnit__0.insertedLoads      134014138                       # Number of loads inserted to the mem dependence unit. (Count)
system.cpu.MemDepUnit__0.insertedStores      32595460                       # Number of stores inserted to the mem dependence unit. (Count)
system.cpu.MemDepUnit__0.conflictingLoads     37020597                       # Number of conflicting loads. (Count)
system.cpu.MemDepUnit__0.conflictingStores      7376274                       # Number of conflicting stores. (Count)
system.cpu.MemDepUnit__1.insertedLoads              0                       # Number of loads inserted to the mem dependence unit. (Count)
system.cpu.MemDepUnit__1.insertedStores             0                       # Number of stores inserted to the mem dependence unit. (Count)
system.cpu.MemDepUnit__1.conflictingLoads            0                       # Number of conflicting loads. (Count)
system.cpu.MemDepUnit__1.conflictingStores            0                       # Number of conflicting stores. (Count)
system.cpu.MemDepUnit__2.insertedLoads              0                       # Number of loads inserted to the mem dependence unit. (Count)
system.cpu.MemDepUnit__2.insertedStores             0                       # Number of stores inserted to the mem dependence unit. (Count)
system.cpu.MemDepUnit__2.conflictingLoads            0                       # Number of conflicting loads. (Count)
system.cpu.MemDepUnit__2.conflictingStores            0                       # Number of conflicting stores. (Count)
system.cpu.MemDepUnit__3.insertedLoads              0                       # Number of loads inserted to the mem dependence unit. (Count)
system.cpu.MemDepUnit__3.insertedStores             0                       # Number of stores inserted to the mem dependence unit. (Count)
system.cpu.MemDepUnit__3.conflictingLoads            0                       # Number of conflicting loads. (Count)
system.cpu.MemDepUnit__3.conflictingStores            0                       # Number of conflicting stores. (Count)
system.cpu.branchPred.lookups                39633026                       # Number of BP lookups (Count)
system.cpu.branchPred.condPredicted          30797257                       # Number of conditional branches predicted (Count)
system.cpu.branchPred.condIncorrect           3863822                       # Number of conditional branches incorrect (Count)
system.cpu.branchPred.BTBLookups             25346627                       # Number of BTB lookups (Count)
system.cpu.branchPred.BTBHits                25344672                       # Number of BTB hits (Count)
system.cpu.branchPred.BTBHitRatio            0.999923                       # BTB Hit Ratio (Ratio)
system.cpu.branchPred.RASUsed                 2262877                       # Number of times the RAS was used to get a target. (Count)
system.cpu.branchPred.RASIncorrect               2202                       # Number of incorrect RAS predictions. (Count)
system.cpu.branchPred.indirectLookups            5536                       # Number of indirect predictor lookups. (Count)
system.cpu.branchPred.indirectHits               5071                       # Number of indirect target hits. (Count)
system.cpu.branchPred.indirectMisses              465                       # Number of indirect misses. (Count)
system.cpu.branchPred.indirectMispredicted           59                       # Number of mispredicted indirect branches. (Count)
system.cpu.commit.commitSquashedInsts       157641135                       # The number of squashed insts skipped by commit (Count)
system.cpu.commit.commitNonSpecStalls              10                       # The number of times commit has been forced to stall to communicate backwards (Count)
system.cpu.commit.branchMispredicts           3862844                       # The number of times a branch was mispredicted (Count)
system.cpu.commit.numCommittedDist::samples    130117022                       # Number of insts commited each cycle (Count)
system.cpu.commit.numCommittedDist::mean     1.986535                       # Number of insts commited each cycle (Count)
system.cpu.commit.numCommittedDist::stdev     2.654901                       # Number of insts commited each cycle (Count)
system.cpu.commit.numCommittedDist::underflows            0      0.00%      0.00% # Number of insts commited each cycle (Count)
system.cpu.commit.numCommittedDist::0        50459298     38.78%     38.78% # Number of insts commited each cycle (Count)
system.cpu.commit.numCommittedDist::1        31173621     23.96%     62.74% # Number of insts commited each cycle (Count)
system.cpu.commit.numCommittedDist::2        16840310     12.94%     75.68% # Number of insts commited each cycle (Count)
system.cpu.commit.numCommittedDist::3         7430055      5.71%     81.39% # Number of insts commited each cycle (Count)
system.cpu.commit.numCommittedDist::4         3396450      2.61%     84.00% # Number of insts commited each cycle (Count)
system.cpu.commit.numCommittedDist::5          987816      0.76%     84.76% # Number of insts commited each cycle (Count)
system.cpu.commit.numCommittedDist::6         2214166      1.70%     86.46% # Number of insts commited each cycle (Count)
system.cpu.commit.numCommittedDist::7         1394650      1.07%     87.53% # Number of insts commited each cycle (Count)
system.cpu.commit.numCommittedDist::8        16220656     12.47%    100.00% # Number of insts commited each cycle (Count)
system.cpu.commit.numCommittedDist::overflows            0      0.00%    100.00% # Number of insts commited each cycle (Count)
system.cpu.commit.numCommittedDist::min_value            0                       # Number of insts commited each cycle (Count)
system.cpu.commit.numCommittedDist::max_value            8                       # Number of insts commited each cycle (Count)
system.cpu.commit.numCommittedDist::total    130117022                       # Number of insts commited each cycle (Count)
system.cpu.commit.instsCommitted            169239831                       # Number of instructions committed (Count)
system.cpu.commit.opsCommitted              258482080                       # Number of ops (including micro ops) committed (Count)
system.cpu.commit.memRefs                    99135984                       # Number of memory references committed (Count)
system.cpu.commit.loads                      79782952                       # Number of loads committed (Count)
system.cpu.commit.amos                              0                       # Number of atomic instructions committed (Count)
system.cpu.commit.membars                           0                       # Number of memory barriers committed (Count)
system.cpu.commit.branches                   18288753                       # Number of branches committed (Count)
system.cpu.commit.vectorInstructions                0                       # Number of committed Vector instructions. (Count)
system.cpu.commit.floating                      25816                       # Number of committed floating point instructions. (Count)
system.cpu.commit.integer                   258012315                       # Number of committed integer instructions. (Count)
system.cpu.commit.functionCalls                948644                       # Number of function calls committed. (Count)
system.cpu.commit.committedInstType_0::No_OpClass         7958      0.00%      0.00% # Class of committed instruction (Count)
system.cpu.commit.committedInstType_0::IntAlu    157817502     61.06%     61.06% # Class of committed instruction (Count)
system.cpu.commit.committedInstType_0::IntMult      1501070      0.58%     61.64% # Class of committed instruction (Count)
system.cpu.commit.committedInstType_0::IntDiv         2122      0.00%     61.64% # Class of committed instruction (Count)
system.cpu.commit.committedInstType_0::FloatAdd          708      0.00%     61.64% # Class of committed instruction (Count)
system.cpu.commit.committedInstType_0::FloatCmp            0      0.00%     61.64% # Class of committed instruction (Count)
system.cpu.commit.committedInstType_0::FloatCvt           16      0.00%     61.64% # Class of committed instruction (Count)
system.cpu.commit.committedInstType_0::FloatMult            0      0.00%     61.64% # Class of committed instruction (Count)
system.cpu.commit.committedInstType_0::FloatMultAcc            0      0.00%     61.64% # Class of committed instruction (Count)
system.cpu.commit.committedInstType_0::FloatDiv            0      0.00%     61.64% # Class of committed instruction (Count)
system.cpu.commit.committedInstType_0::FloatMisc            0      0.00%     61.64% # Class of committed instruction (Count)
system.cpu.commit.committedInstType_0::FloatSqrt            0      0.00%     61.64% # Class of committed instruction (Count)
system.cpu.commit.committedInstType_0::SimdAdd            4      0.00%     61.64% # Class of committed instruction (Count)
system.cpu.commit.committedInstType_0::SimdAddAcc            0      0.00%     61.64% # Class of committed instruction (Count)
system.cpu.commit.committedInstType_0::SimdAlu         4004      0.00%     61.64% # Class of committed instruction (Count)
system.cpu.commit.committedInstType_0::SimdCmp            0      0.00%     61.64% # Class of committed instruction (Count)
system.cpu.commit.committedInstType_0::SimdCvt         5208      0.00%     61.64% # Class of committed instruction (Count)
system.cpu.commit.committedInstType_0::SimdMisc         7504      0.00%     61.65% # Class of committed instruction (Count)
system.cpu.commit.committedInstType_0::SimdMult            0      0.00%     61.65% # Class of committed instruction (Count)
system.cpu.commit.committedInstType_0::SimdMultAcc            0      0.00%     61.65% # Class of committed instruction (Count)
system.cpu.commit.committedInstType_0::SimdShift            0      0.00%     61.65% # Class of committed instruction (Count)
system.cpu.commit.committedInstType_0::SimdShiftAcc            0      0.00%     61.65% # Class of committed instruction (Count)
system.cpu.commit.committedInstType_0::SimdDiv            0      0.00%     61.65% # Class of committed instruction (Count)
system.cpu.commit.committedInstType_0::SimdSqrt            0      0.00%     61.65% # Class of committed instruction (Count)
system.cpu.commit.committedInstType_0::SimdFloatAdd            0      0.00%     61.65% # Class of committed instruction (Count)
system.cpu.commit.committedInstType_0::SimdFloatAlu            0      0.00%     61.65% # Class of committed instruction (Count)
system.cpu.commit.committedInstType_0::SimdFloatCmp            0      0.00%     61.65% # Class of committed instruction (Count)
system.cpu.commit.committedInstType_0::SimdFloatCvt            0      0.00%     61.65% # Class of committed instruction (Count)
system.cpu.commit.committedInstType_0::SimdFloatDiv            0      0.00%     61.65% # Class of committed instruction (Count)
system.cpu.commit.committedInstType_0::SimdFloatMisc            0      0.00%     61.65% # Class of committed instruction (Count)
system.cpu.commit.committedInstType_0::SimdFloatMult            0      0.00%     61.65% # Class of committed instruction (Count)
system.cpu.commit.committedInstType_0::SimdFloatMultAcc            0      0.00%     61.65% # Class of committed instruction (Count)
system.cpu.commit.committedInstType_0::SimdFloatSqrt            0      0.00%     61.65% # Class of committed instruction (Count)
system.cpu.commit.committedInstType_0::SimdReduceAdd            0      0.00%     61.65% # Class of committed instruction (Count)
system.cpu.commit.committedInstType_0::SimdReduceAlu            0      0.00%     61.65% # Class of committed instruction (Count)
system.cpu.commit.committedInstType_0::SimdReduceCmp            0      0.00%     61.65% # Class of committed instruction (Count)
system.cpu.commit.committedInstType_0::SimdFloatReduceAdd            0      0.00%     61.65% # Class of committed instruction (Count)
system.cpu.commit.committedInstType_0::SimdFloatReduceCmp            0      0.00%     61.65% # Class of committed instruction (Count)
system.cpu.commit.committedInstType_0::SimdAes            0      0.00%     61.65% # Class of committed instruction (Count)
system.cpu.commit.committedInstType_0::SimdAesMix            0      0.00%     61.65% # Class of committed instruction (Count)
system.cpu.commit.committedInstType_0::SimdSha1Hash            0      0.00%     61.65% # Class of committed instruction (Count)
system.cpu.commit.committedInstType_0::SimdSha1Hash2            0      0.00%     61.65% # Class of committed instruction (Count)
system.cpu.commit.committedInstType_0::SimdSha256Hash            0      0.00%     61.65% # Class of committed instruction (Count)
system.cpu.commit.committedInstType_0::SimdSha256Hash2            0      0.00%     61.65% # Class of committed instruction (Count)
system.cpu.commit.committedInstType_0::SimdShaSigma2            0      0.00%     61.65% # Class of committed instruction (Count)
system.cpu.commit.committedInstType_0::SimdShaSigma3            0      0.00%     61.65% # Class of committed instruction (Count)
system.cpu.commit.committedInstType_0::SimdPredAlu            0      0.00%     61.65% # Class of committed instruction (Count)
system.cpu.commit.committedInstType_0::MemRead     79778912     30.86%     92.51% # Class of committed instruction (Count)
system.cpu.commit.committedInstType_0::MemWrite     19351600      7.49%    100.00% # Class of committed instruction (Count)
system.cpu.commit.committedInstType_0::FloatMemRead         4040      0.00%    100.00% # Class of committed instruction (Count)
system.cpu.commit.committedInstType_0::FloatMemWrite         1432      0.00%    100.00% # Class of committed instruction (Count)
system.cpu.commit.committedInstType_0::IprAccess            0      0.00%    100.00% # Class of committed instruction (Count)
system.cpu.commit.committedInstType_0::InstPrefetch            0      0.00%    100.00% # Class of committed instruction (Count)
system.cpu.commit.committedInstType_0::total    258482080                       # Class of committed instruction (Count)
system.cpu.commit.commitEligibleSamples      16220656                       # number cycles where commit BW limit reached (Cycle)
system.cpu.dcache.demandHits::cpu.data       96987435                       # number of demand (read+write) hits (Count)
system.cpu.dcache.demandHits::total          96987435                       # number of demand (read+write) hits (Count)
system.cpu.dcache.overallHits::cpu.data      96987435                       # number of overall hits (Count)
system.cpu.dcache.overallHits::total         96987435                       # number of overall hits (Count)
system.cpu.dcache.demandMisses::cpu.data       632373                       # number of demand (read+write) misses (Count)
system.cpu.dcache.demandMisses::total          632373                       # number of demand (read+write) misses (Count)
system.cpu.dcache.overallMisses::cpu.data       632373                       # number of overall misses (Count)
system.cpu.dcache.overallMisses::total         632373                       # number of overall misses (Count)
system.cpu.dcache.demandMissLatency::cpu.data   7247452500                       # number of demand (read+write) miss ticks (Tick)
system.cpu.dcache.demandMissLatency::total   7247452500                       # number of demand (read+write) miss ticks (Tick)
system.cpu.dcache.overallMissLatency::cpu.data   7247452500                       # number of overall miss ticks (Tick)
system.cpu.dcache.overallMissLatency::total   7247452500                       # number of overall miss ticks (Tick)
system.cpu.dcache.demandAccesses::cpu.data     97619808                       # number of demand (read+write) accesses (Count)
system.cpu.dcache.demandAccesses::total      97619808                       # number of demand (read+write) accesses (Count)
system.cpu.dcache.overallAccesses::cpu.data     97619808                       # number of overall (read+write) accesses (Count)
system.cpu.dcache.overallAccesses::total     97619808                       # number of overall (read+write) accesses (Count)
system.cpu.dcache.demandMissRate::cpu.data     0.006478                       # miss rate for demand accesses (Ratio)
system.cpu.dcache.demandMissRate::total      0.006478                       # miss rate for demand accesses (Ratio)
system.cpu.dcache.overallMissRate::cpu.data     0.006478                       # miss rate for overall accesses (Ratio)
system.cpu.dcache.overallMissRate::total     0.006478                       # miss rate for overall accesses (Ratio)
system.cpu.dcache.demandAvgMissLatency::cpu.data 11460.724130                       # average overall miss latency in ticks ((Tick/Count))
system.cpu.dcache.demandAvgMissLatency::total 11460.724130                       # average overall miss latency in ticks ((Tick/Count))
system.cpu.dcache.overallAvgMissLatency::cpu.data 11460.724130                       # average overall miss latency ((Tick/Count))
system.cpu.dcache.overallAvgMissLatency::total 11460.724130                       # average overall miss latency ((Tick/Count))
system.cpu.dcache.blockedCycles::no_mshrs         7737                       # number of cycles access was blocked (Cycle)
system.cpu.dcache.blockedCycles::no_targets            0                       # number of cycles access was blocked (Cycle)
system.cpu.dcache.blockedCauses::no_mshrs          990                       # number of times access was blocked (Count)
system.cpu.dcache.blockedCauses::no_targets            0                       # number of times access was blocked (Count)
system.cpu.dcache.avgBlocked::no_mshrs       7.815152                       # average number of cycles each access was blocked ((Cycle/Count))
system.cpu.dcache.avgBlocked::no_targets          nan                       # average number of cycles each access was blocked ((Cycle/Count))
system.cpu.dcache.writebacks::writebacks       204160                       # number of writebacks (Count)
system.cpu.dcache.writebacks::total            204160                       # number of writebacks (Count)
system.cpu.dcache.demandMshrHits::cpu.data       419264                       # number of demand (read+write) MSHR hits (Count)
system.cpu.dcache.demandMshrHits::total        419264                       # number of demand (read+write) MSHR hits (Count)
system.cpu.dcache.overallMshrHits::cpu.data       419264                       # number of overall MSHR hits (Count)
system.cpu.dcache.overallMshrHits::total       419264                       # number of overall MSHR hits (Count)
system.cpu.dcache.demandMshrMisses::cpu.data       213109                       # number of demand (read+write) MSHR misses (Count)
system.cpu.dcache.demandMshrMisses::total       213109                       # number of demand (read+write) MSHR misses (Count)
system.cpu.dcache.overallMshrMisses::cpu.data       213109                       # number of overall MSHR misses (Count)
system.cpu.dcache.overallMshrMisses::total       213109                       # number of overall MSHR misses (Count)
system.cpu.dcache.demandMshrMissLatency::cpu.data   3045212000                       # number of demand (read+write) MSHR miss ticks (Tick)
system.cpu.dcache.demandMshrMissLatency::total   3045212000                       # number of demand (read+write) MSHR miss ticks (Tick)
system.cpu.dcache.overallMshrMissLatency::cpu.data   3045212000                       # number of overall MSHR miss ticks (Tick)
system.cpu.dcache.overallMshrMissLatency::total   3045212000                       # number of overall MSHR miss ticks (Tick)
system.cpu.dcache.demandMshrMissRate::cpu.data     0.002183                       # mshr miss ratio for demand accesses (Ratio)
system.cpu.dcache.demandMshrMissRate::total     0.002183                       # mshr miss ratio for demand accesses (Ratio)
system.cpu.dcache.overallMshrMissRate::cpu.data     0.002183                       # mshr miss ratio for overall accesses (Ratio)
system.cpu.dcache.overallMshrMissRate::total     0.002183                       # mshr miss ratio for overall accesses (Ratio)
system.cpu.dcache.demandAvgMshrMissLatency::cpu.data 14289.457508                       # average overall mshr miss latency ((Tick/Count))
system.cpu.dcache.demandAvgMshrMissLatency::total 14289.457508                       # average overall mshr miss latency ((Tick/Count))
system.cpu.dcache.overallAvgMshrMissLatency::cpu.data 14289.457508                       # average overall mshr miss latency ((Tick/Count))
system.cpu.dcache.overallAvgMshrMissLatency::total 14289.457508                       # average overall mshr miss latency ((Tick/Count))
system.cpu.dcache.replacements                 213108                       # number of replacements (Count)
system.cpu.dcache.ReadReq.hits::cpu.data     77682030                       # number of ReadReq hits (Count)
system.cpu.dcache.ReadReq.hits::total        77682030                       # number of ReadReq hits (Count)
system.cpu.dcache.ReadReq.misses::cpu.data       584746                       # number of ReadReq misses (Count)
system.cpu.dcache.ReadReq.misses::total        584746                       # number of ReadReq misses (Count)
system.cpu.dcache.ReadReq.missLatency::cpu.data   6272123000                       # number of ReadReq miss ticks (Tick)
system.cpu.dcache.ReadReq.missLatency::total   6272123000                       # number of ReadReq miss ticks (Tick)
system.cpu.dcache.ReadReq.accesses::cpu.data     78266776                       # number of ReadReq accesses(hits+misses) (Count)
system.cpu.dcache.ReadReq.accesses::total     78266776                       # number of ReadReq accesses(hits+misses) (Count)
system.cpu.dcache.ReadReq.missRate::cpu.data     0.007471                       # miss rate for ReadReq accesses (Ratio)
system.cpu.dcache.ReadReq.missRate::total     0.007471                       # miss rate for ReadReq accesses (Ratio)
system.cpu.dcache.ReadReq.avgMissLatency::cpu.data 10726.234981                       # average ReadReq miss latency ((Tick/Count))
system.cpu.dcache.ReadReq.avgMissLatency::total 10726.234981                       # average ReadReq miss latency ((Tick/Count))
system.cpu.dcache.ReadReq.mshrHits::cpu.data       419119                       # number of ReadReq MSHR hits (Count)
system.cpu.dcache.ReadReq.mshrHits::total       419119                       # number of ReadReq MSHR hits (Count)
system.cpu.dcache.ReadReq.mshrMisses::cpu.data       165627                       # number of ReadReq MSHR misses (Count)
system.cpu.dcache.ReadReq.mshrMisses::total       165627                       # number of ReadReq MSHR misses (Count)
system.cpu.dcache.ReadReq.mshrMissLatency::cpu.data   2121191000                       # number of ReadReq MSHR miss ticks (Tick)
system.cpu.dcache.ReadReq.mshrMissLatency::total   2121191000                       # number of ReadReq MSHR miss ticks (Tick)
system.cpu.dcache.ReadReq.mshrMissRate::cpu.data     0.002116                       # mshr miss rate for ReadReq accesses (Ratio)
system.cpu.dcache.ReadReq.mshrMissRate::total     0.002116                       # mshr miss rate for ReadReq accesses (Ratio)
system.cpu.dcache.ReadReq.avgMshrMissLatency::cpu.data 12807.036292                       # average ReadReq mshr miss latency ((Tick/Count))
system.cpu.dcache.ReadReq.avgMshrMissLatency::total 12807.036292                       # average ReadReq mshr miss latency ((Tick/Count))
system.cpu.dcache.WriteReq.hits::cpu.data     19305405                       # number of WriteReq hits (Count)
system.cpu.dcache.WriteReq.hits::total       19305405                       # number of WriteReq hits (Count)
system.cpu.dcache.WriteReq.misses::cpu.data        47627                       # number of WriteReq misses (Count)
system.cpu.dcache.WriteReq.misses::total        47627                       # number of WriteReq misses (Count)
system.cpu.dcache.WriteReq.missLatency::cpu.data    975329500                       # number of WriteReq miss ticks (Tick)
system.cpu.dcache.WriteReq.missLatency::total    975329500                       # number of WriteReq miss ticks (Tick)
system.cpu.dcache.WriteReq.accesses::cpu.data     19353032                       # number of WriteReq accesses(hits+misses) (Count)
system.cpu.dcache.WriteReq.accesses::total     19353032                       # number of WriteReq accesses(hits+misses) (Count)
system.cpu.dcache.WriteReq.missRate::cpu.data     0.002461                       # miss rate for WriteReq accesses (Ratio)
system.cpu.dcache.WriteReq.missRate::total     0.002461                       # miss rate for WriteReq accesses (Ratio)
system.cpu.dcache.WriteReq.avgMissLatency::cpu.data 20478.499591                       # average WriteReq miss latency ((Tick/Count))
system.cpu.dcache.WriteReq.avgMissLatency::total 20478.499591                       # average WriteReq miss latency ((Tick/Count))
system.cpu.dcache.WriteReq.mshrHits::cpu.data          145                       # number of WriteReq MSHR hits (Count)
system.cpu.dcache.WriteReq.mshrHits::total          145                       # number of WriteReq MSHR hits (Count)
system.cpu.dcache.WriteReq.mshrMisses::cpu.data        47482                       # number of WriteReq MSHR misses (Count)
system.cpu.dcache.WriteReq.mshrMisses::total        47482                       # number of WriteReq MSHR misses (Count)
system.cpu.dcache.WriteReq.mshrMissLatency::cpu.data    924021000                       # number of WriteReq MSHR miss ticks (Tick)
system.cpu.dcache.WriteReq.mshrMissLatency::total    924021000                       # number of WriteReq MSHR miss ticks (Tick)
system.cpu.dcache.WriteReq.mshrMissRate::cpu.data     0.002453                       # mshr miss rate for WriteReq accesses (Ratio)
system.cpu.dcache.WriteReq.mshrMissRate::total     0.002453                       # mshr miss rate for WriteReq accesses (Ratio)
system.cpu.dcache.WriteReq.avgMshrMissLatency::cpu.data 19460.448170                       # average WriteReq mshr miss latency ((Tick/Count))
system.cpu.dcache.WriteReq.avgMshrMissLatency::total 19460.448170                       # average WriteReq mshr miss latency ((Tick/Count))
system.cpu.dcache.power_state.pwrStateResidencyTicks::UNDEFINED  76267301000                       # Cumulative time (in ticks) in various power states (Tick)
system.cpu.dcache.tags.tagsInUse                   64                       # Average ticks per tags in use ((Tick/Count))
system.cpu.dcache.tags.totalRefs             97070252                       # Total number of references to valid blocks. (Count)
system.cpu.dcache.tags.sampledRefs             213108                       # Sample count of references to valid blocks. (Count)
system.cpu.dcache.tags.avgRefs             455.497926                       # Average number of references to valid blocks. ((Count/Count))
system.cpu.dcache.tags.warmupTick             8441000                       # The tick when the warmup percentage was hit. (Tick)
system.cpu.dcache.tags.occupancies::cpu.data           64                       # Average occupied blocks per tick, per requestor ((Count/Tick))
system.cpu.dcache.tags.avgOccs::cpu.data            1                       # Average percentage of cache occupancy ((Ratio/Tick))
system.cpu.dcache.tags.avgOccs::total               1                       # Average percentage of cache occupancy ((Ratio/Tick))
system.cpu.dcache.tags.occupanciesTaskId::1024           64                       # Occupied blocks per task id (Count)
system.cpu.dcache.tags.ageTaskId_1024::0           33                       # Occupied blocks per task id, per block age (Count)
system.cpu.dcache.tags.ageTaskId_1024::1           17                       # Occupied blocks per task id, per block age (Count)
system.cpu.dcache.tags.ageTaskId_1024::2           14                       # Occupied blocks per task id, per block age (Count)
system.cpu.dcache.tags.ratioOccsTaskId::1024            1                       # Ratio of occupied blocks and all blocks, per task id (Ratio)
system.cpu.dcache.tags.tagAccesses          195452724                       # Number of tag accesses (Count)
system.cpu.dcache.tags.dataAccesses         195452724                       # Number of data accesses (Count)
system.cpu.dcache.tags.power_state.pwrStateResidencyTicks::UNDEFINED  76267301000                       # Cumulative time (in ticks) in various power states (Tick)
system.cpu.decode.idleCycles                 20141977                       # Number of cycles decode is idle (Cycle)
system.cpu.decode.blockedCycles              65643677                       # Number of cycles decode is blocked (Cycle)
system.cpu.decode.runCycles                  43169103                       # Number of cycles decode is running (Cycle)
system.cpu.decode.unblockCycles              18667646                       # Number of cycles decode is unblocking (Cycle)
system.cpu.decode.squashCycles                3867092                       # Number of cycles decode is squashing (Cycle)
system.cpu.decode.branchResolved             19391843                       # Number of times decode resolved a branch (Count)
system.cpu.decode.branchMispred                  1122                       # Number of times decode detected a branch misprediction (Count)
system.cpu.decode.decodedInsts              455203424                       # Number of instructions handled by decode (Count)
system.cpu.decode.squashedInsts                  1339                       # Number of squashed instructions handled by decode (Count)
system.cpu.fetch.icacheStallCycles           40195125                       # Number of cycles fetch is stalled on an Icache miss (Cycle)
system.cpu.fetch.insts                      371275479                       # Number of instructions fetch has processed (Count)
system.cpu.fetch.branches                    39633026                       # Number of branches that fetch encountered (Count)
system.cpu.fetch.predictedBranches           27612620                       # Number of branches that fetch has predicted taken (Count)
system.cpu.fetch.cycles                     107424982                       # Number of cycles fetch has run and was not squashing or blocked (Cycle)
system.cpu.fetch.squashCycles                 7736408                       # Number of cycles fetch has spent squashing (Cycle)
system.cpu.fetch.miscStallCycles                  148                       # Number of cycles fetch has spent waiting on interrupts, or bad addresses, or out of MSHRs (Cycle)
system.cpu.fetch.pendingTrapStallCycles          1029                       # Number of stall cycles due to pending traps (Cycle)
system.cpu.fetch.icacheWaitRetryStallCycles            7                       # Number of stall cycles due to full MSHR (Cycle)
system.cpu.fetch.cacheLines                  38045343                       # Number of cache lines fetched (Count)
system.cpu.fetch.icacheSquashes                745628                       # Number of outstanding Icache misses that were squashed (Count)
system.cpu.fetch.nisnDist::samples          151489495                       # Number of instructions fetched each cycle (Total) (Count)
system.cpu.fetch.nisnDist::mean              3.727822                       # Number of instructions fetched each cycle (Total) (Count)
system.cpu.fetch.nisnDist::stdev             3.568807                       # Number of instructions fetched each cycle (Total) (Count)
system.cpu.fetch.nisnDist::underflows               0      0.00%      0.00% # Number of instructions fetched each cycle (Total) (Count)
system.cpu.fetch.nisnDist::0                 62298359     41.12%     41.12% # Number of instructions fetched each cycle (Total) (Count)
system.cpu.fetch.nisnDist::1                  5708303      3.77%     44.89% # Number of instructions fetched each cycle (Total) (Count)
system.cpu.fetch.nisnDist::2                  2681756      1.77%     46.66% # Number of instructions fetched each cycle (Total) (Count)
system.cpu.fetch.nisnDist::3                  8337497      5.50%     52.17% # Number of instructions fetched each cycle (Total) (Count)
system.cpu.fetch.nisnDist::4                  1780396      1.18%     53.34% # Number of instructions fetched each cycle (Total) (Count)
system.cpu.fetch.nisnDist::5                  6937197      4.58%     57.92% # Number of instructions fetched each cycle (Total) (Count)
system.cpu.fetch.nisnDist::6                  4251341      2.81%     60.73% # Number of instructions fetched each cycle (Total) (Count)
system.cpu.fetch.nisnDist::7                 14631253      9.66%     70.39% # Number of instructions fetched each cycle (Total) (Count)
system.cpu.fetch.nisnDist::8                 44863393     29.61%    100.00% # Number of instructions fetched each cycle (Total) (Count)
system.cpu.fetch.nisnDist::overflows                0      0.00%    100.00% # Number of instructions fetched each cycle (Total) (Count)
system.cpu.fetch.nisnDist::min_value                0                       # Number of instructions fetched each cycle (Total) (Count)
system.cpu.fetch.nisnDist::max_value                8                       # Number of instructions fetched each cycle (Total) (Count)
system.cpu.fetch.nisnDist::total            151489495                       # Number of instructions fetched each cycle (Total) (Count)
system.cpu.fetch.branchRate                  0.260425                       # Number of branch fetches per cycle (Ratio)
system.cpu.fetch.rate                        2.439614                       # Number of inst fetches per cycle ((Count/Cycle))
system.cpu.icache.demandHits::cpu.inst       38023872                       # number of demand (read+write) hits (Count)
system.cpu.icache.demandHits::total          38023872                       # number of demand (read+write) hits (Count)
system.cpu.icache.overallHits::cpu.inst      38023872                       # number of overall hits (Count)
system.cpu.icache.overallHits::total         38023872                       # number of overall hits (Count)
system.cpu.icache.demandMisses::cpu.inst        21471                       # number of demand (read+write) misses (Count)
system.cpu.icache.demandMisses::total           21471                       # number of demand (read+write) misses (Count)
system.cpu.icache.overallMisses::cpu.inst        21471                       # number of overall misses (Count)
system.cpu.icache.overallMisses::total          21471                       # number of overall misses (Count)
system.cpu.icache.demandMissLatency::cpu.inst    757781000                       # number of demand (read+write) miss ticks (Tick)
system.cpu.icache.demandMissLatency::total    757781000                       # number of demand (read+write) miss ticks (Tick)
system.cpu.icache.overallMissLatency::cpu.inst    757781000                       # number of overall miss ticks (Tick)
system.cpu.icache.overallMissLatency::total    757781000                       # number of overall miss ticks (Tick)
system.cpu.icache.demandAccesses::cpu.inst     38045343                       # number of demand (read+write) accesses (Count)
system.cpu.icache.demandAccesses::total      38045343                       # number of demand (read+write) accesses (Count)
system.cpu.icache.overallAccesses::cpu.inst     38045343                       # number of overall (read+write) accesses (Count)
system.cpu.icache.overallAccesses::total     38045343                       # number of overall (read+write) accesses (Count)
system.cpu.icache.demandMissRate::cpu.inst     0.000564                       # miss rate for demand accesses (Ratio)
system.cpu.icache.demandMissRate::total      0.000564                       # miss rate for demand accesses (Ratio)
system.cpu.icache.overallMissRate::cpu.inst     0.000564                       # miss rate for overall accesses (Ratio)
system.cpu.icache.overallMissRate::total     0.000564                       # miss rate for overall accesses (Ratio)
system.cpu.icache.demandAvgMissLatency::cpu.inst 35293.232733                       # average overall miss latency in ticks ((Tick/Count))
system.cpu.icache.demandAvgMissLatency::total 35293.232733                       # average overall miss latency in ticks ((Tick/Count))
system.cpu.icache.overallAvgMissLatency::cpu.inst 35293.232733                       # average overall miss latency ((Tick/Count))
system.cpu.icache.overallAvgMissLatency::total 35293.232733                       # average overall miss latency ((Tick/Count))
system.cpu.icache.blockedCycles::no_mshrs           91                       # number of cycles access was blocked (Cycle)
system.cpu.icache.blockedCycles::no_targets            0                       # number of cycles access was blocked (Cycle)
system.cpu.icache.blockedCauses::no_mshrs            3                       # number of times access was blocked (Count)
system.cpu.icache.blockedCauses::no_targets            0                       # number of times access was blocked (Count)
system.cpu.icache.avgBlocked::no_mshrs      30.333333                       # average number of cycles each access was blocked ((Cycle/Count))
system.cpu.icache.avgBlocked::no_targets          nan                       # average number of cycles each access was blocked ((Cycle/Count))
system.cpu.icache.demandMshrHits::cpu.inst          842                       # number of demand (read+write) MSHR hits (Count)
system.cpu.icache.demandMshrHits::total           842                       # number of demand (read+write) MSHR hits (Count)
system.cpu.icache.overallMshrHits::cpu.inst          842                       # number of overall MSHR hits (Count)
system.cpu.icache.overallMshrHits::total          842                       # number of overall MSHR hits (Count)
system.cpu.icache.demandMshrMisses::cpu.inst        20629                       # number of demand (read+write) MSHR misses (Count)
system.cpu.icache.demandMshrMisses::total        20629                       # number of demand (read+write) MSHR misses (Count)
system.cpu.icache.overallMshrMisses::cpu.inst        20629                       # number of overall MSHR misses (Count)
system.cpu.icache.overallMshrMisses::total        20629                       # number of overall MSHR misses (Count)
system.cpu.icache.demandMshrMissLatency::cpu.inst    686933000                       # number of demand (read+write) MSHR miss ticks (Tick)
system.cpu.icache.demandMshrMissLatency::total    686933000                       # number of demand (read+write) MSHR miss ticks (Tick)
system.cpu.icache.overallMshrMissLatency::cpu.inst    686933000                       # number of overall MSHR miss ticks (Tick)
system.cpu.icache.overallMshrMissLatency::total    686933000                       # number of overall MSHR miss ticks (Tick)
system.cpu.icache.demandMshrMissRate::cpu.inst     0.000542                       # mshr miss ratio for demand accesses (Ratio)
system.cpu.icache.demandMshrMissRate::total     0.000542                       # mshr miss ratio for demand accesses (Ratio)
system.cpu.icache.overallMshrMissRate::cpu.inst     0.000542                       # mshr miss ratio for overall accesses (Ratio)
system.cpu.icache.overallMshrMissRate::total     0.000542                       # mshr miss ratio for overall accesses (Ratio)
system.cpu.icache.demandAvgMshrMissLatency::cpu.inst 33299.384362                       # average overall mshr miss latency ((Tick/Count))
system.cpu.icache.demandAvgMshrMissLatency::total 33299.384362                       # average overall mshr miss latency ((Tick/Count))
system.cpu.icache.overallAvgMshrMissLatency::cpu.inst 33299.384362                       # average overall mshr miss latency ((Tick/Count))
system.cpu.icache.overallAvgMshrMissLatency::total 33299.384362                       # average overall mshr miss latency ((Tick/Count))
system.cpu.icache.replacements                  20626                       # number of replacements (Count)
system.cpu.icache.ReadReq.hits::cpu.inst     38023872                       # number of ReadReq hits (Count)
system.cpu.icache.ReadReq.hits::total        38023872                       # number of ReadReq hits (Count)
system.cpu.icache.ReadReq.misses::cpu.inst        21471                       # number of ReadReq misses (Count)
system.cpu.icache.ReadReq.misses::total         21471                       # number of ReadReq misses (Count)
system.cpu.icache.ReadReq.missLatency::cpu.inst    757781000                       # number of ReadReq miss ticks (Tick)
system.cpu.icache.ReadReq.missLatency::total    757781000                       # number of ReadReq miss ticks (Tick)
system.cpu.icache.ReadReq.accesses::cpu.inst     38045343                       # number of ReadReq accesses(hits+misses) (Count)
system.cpu.icache.ReadReq.accesses::total     38045343                       # number of ReadReq accesses(hits+misses) (Count)
system.cpu.icache.ReadReq.missRate::cpu.inst     0.000564                       # miss rate for ReadReq accesses (Ratio)
system.cpu.icache.ReadReq.missRate::total     0.000564                       # miss rate for ReadReq accesses (Ratio)
system.cpu.icache.ReadReq.avgMissLatency::cpu.inst 35293.232733                       # average ReadReq miss latency ((Tick/Count))
system.cpu.icache.ReadReq.avgMissLatency::total 35293.232733                       # average ReadReq miss latency ((Tick/Count))
system.cpu.icache.ReadReq.mshrHits::cpu.inst          842                       # number of ReadReq MSHR hits (Count)
system.cpu.icache.ReadReq.mshrHits::total          842                       # number of ReadReq MSHR hits (Count)
system.cpu.icache.ReadReq.mshrMisses::cpu.inst        20629                       # number of ReadReq MSHR misses (Count)
system.cpu.icache.ReadReq.mshrMisses::total        20629                       # number of ReadReq MSHR misses (Count)
system.cpu.icache.ReadReq.mshrMissLatency::cpu.inst    686933000                       # number of ReadReq MSHR miss ticks (Tick)
system.cpu.icache.ReadReq.mshrMissLatency::total    686933000                       # number of ReadReq MSHR miss ticks (Tick)
system.cpu.icache.ReadReq.mshrMissRate::cpu.inst     0.000542                       # mshr miss rate for ReadReq accesses (Ratio)
system.cpu.icache.ReadReq.mshrMissRate::total     0.000542                       # mshr miss rate for ReadReq accesses (Ratio)
system.cpu.icache.ReadReq.avgMshrMissLatency::cpu.inst 33299.384362                       # average ReadReq mshr miss latency ((Tick/Count))
system.cpu.icache.ReadReq.avgMshrMissLatency::total 33299.384362                       # average ReadReq mshr miss latency ((Tick/Count))
system.cpu.icache.power_state.pwrStateResidencyTicks::UNDEFINED  76267301000                       # Cumulative time (in ticks) in various power states (Tick)
system.cpu.icache.tags.tagsInUse            63.999943                       # Average ticks per tags in use ((Tick/Count))
system.cpu.icache.tags.totalRefs             34485558                       # Total number of references to valid blocks. (Count)
system.cpu.icache.tags.sampledRefs              20628                       # Sample count of references to valid blocks. (Count)
system.cpu.icache.tags.avgRefs            1671.783886                       # Average number of references to valid blocks. ((Count/Count))
system.cpu.icache.tags.warmupTick            10756500                       # The tick when the warmup percentage was hit. (Tick)
system.cpu.icache.tags.occupancies::cpu.inst    63.999943                       # Average occupied blocks per tick, per requestor ((Count/Tick))
system.cpu.icache.tags.avgOccs::cpu.inst     0.999999                       # Average percentage of cache occupancy ((Ratio/Tick))
system.cpu.icache.tags.avgOccs::total        0.999999                       # Average percentage of cache occupancy ((Ratio/Tick))
system.cpu.icache.tags.occupanciesTaskId::1024           64                       # Occupied blocks per task id (Count)
system.cpu.icache.tags.ageTaskId_1024::0           38                       # Occupied blocks per task id, per block age (Count)
system.cpu.icache.tags.ageTaskId_1024::2            7                       # Occupied blocks per task id, per block age (Count)
system.cpu.icache.tags.ageTaskId_1024::4           19                       # Occupied blocks per task id, per block age (Count)
system.cpu.icache.tags.ratioOccsTaskId::1024            1                       # Ratio of occupied blocks and all blocks, per task id (Ratio)
system.cpu.icache.tags.tagAccesses           76111314                       # Number of tag accesses (Count)
system.cpu.icache.tags.dataAccesses          76111314                       # Number of data accesses (Count)
system.cpu.icache.tags.power_state.pwrStateResidencyTicks::UNDEFINED  76267301000                       # Cumulative time (in ticks) in various power states (Tick)
system.cpu.iew.idleCycles                           0                       # Number of cycles IEW is idle (Cycle)
system.cpu.iew.squashCycles                   3867092                       # Number of cycles IEW is squashing (Cycle)
system.cpu.iew.blockCycles                   17505381                       # Number of cycles IEW is blocking (Cycle)
system.cpu.iew.unblockCycles                      425                       # Number of cycles IEW is unblocking (Cycle)
system.cpu.iew.dispatchedInsts              416125240                       # Number of instructions dispatched to IQ (Count)
system.cpu.iew.dispSquashedInsts               368059                       # Number of squashed instructions skipped by dispatch (Count)
system.cpu.iew.dispLoadInsts                134014138                       # Number of dispatched load instructions (Count)
system.cpu.iew.dispStoreInsts                32595460                       # Number of dispatched store instructions (Count)
system.cpu.iew.dispNonSpecInsts                    17                       # Number of dispatched non-speculative instructions (Count)
system.cpu.iew.iqFullEvents                         0                       # Number of times the IQ has become full, causing a stall (Count)
system.cpu.iew.lsqFullEvents                      423                       # Number of times the LSQ has become full, causing a stall (Count)
system.cpu.iew.memOrderViolationEvents           4643                       # Number of memory order violations (Count)
system.cpu.iew.predictedTakenIncorrect        1806619                       # Number of branches that were predicted taken incorrectly (Count)
system.cpu.iew.predictedNotTakenIncorrect      2393839                       # Number of branches that were predicted not taken incorrectly (Count)
system.cpu.iew.branchMispredicts              4200458                       # Number of branch mispredicts detected at execute (Count)
system.cpu.iew.instsToCommit                358847815                       # Cumulative count of insts sent to commit (Count)
system.cpu.iew.writebackCount               356255183                       # Cumulative count of insts written-back (Count)
system.cpu.iew.producerInst                 294406970                       # Number of instructions producing a value (Count)
system.cpu.iew.consumerInst                 356485226                       # Number of instructions consuming a value (Count)
system.cpu.iew.wbRate                        2.340917                       # Insts written-back per cycle ((Count/Cycle))
system.cpu.iew.wbFanout                      0.825860                       # Average fanout of values written-back ((Count/Count))
system.cpu.interrupts.clk_domain.clock           8000                       # Clock period in ticks (Tick)
system.cpu.lsq0.forwLoads                    41092996                       # Number of loads that had data forwarded from stores (Count)
system.cpu.lsq0.squashedLoads                54231184                       # Number of loads squashed (Count)
system.cpu.lsq0.ignoredResponses               244689                       # Number of memory responses ignored because the instruction is squashed (Count)
system.cpu.lsq0.memOrderViolation                4643                       # Number of memory ordering violations (Count)
system.cpu.lsq0.squashedStores               13242428                       # Number of stores squashed (Count)
system.cpu.lsq0.rescheduledLoads                  297                       # Number of loads that were rescheduled (Count)
system.cpu.lsq0.blockedByCache                    593                       # Number of times an access to memory failed due to the cache being blocked (Count)
system.cpu.lsq0.loadToUse::samples           79782952                       # Distribution of cycle latency between the first time a load is issued and its completion (Unspecified)
system.cpu.lsq0.loadToUse::mean              2.974196                       # Distribution of cycle latency between the first time a load is issued and its completion (Unspecified)
system.cpu.lsq0.loadToUse::stdev             2.018660                       # Distribution of cycle latency between the first time a load is issued and its completion (Unspecified)
system.cpu.lsq0.loadToUse::0-9               79384887     99.50%     99.50% # Distribution of cycle latency between the first time a load is issued and its completion (Unspecified)
system.cpu.lsq0.loadToUse::10-19               112662      0.14%     99.64% # Distribution of cycle latency between the first time a load is issued and its completion (Unspecified)
system.cpu.lsq0.loadToUse::20-29               272377      0.34%     99.98% # Distribution of cycle latency between the first time a load is issued and its completion (Unspecified)
system.cpu.lsq0.loadToUse::30-39                 1111      0.00%     99.99% # Distribution of cycle latency between the first time a load is issued and its completion (Unspecified)
system.cpu.lsq0.loadToUse::40-49                  711      0.00%     99.99% # Distribution of cycle latency between the first time a load is issued and its completion (Unspecified)
system.cpu.lsq0.loadToUse::50-59                  849      0.00%     99.99% # Distribution of cycle latency between the first time a load is issued and its completion (Unspecified)
system.cpu.lsq0.loadToUse::60-69                 2639      0.00%     99.99% # Distribution of cycle latency between the first time a load is issued and its completion (Unspecified)
system.cpu.lsq0.loadToUse::70-79                 3703      0.00%     99.99% # Distribution of cycle latency between the first time a load is issued and its completion (Unspecified)
system.cpu.lsq0.loadToUse::80-89                   43      0.00%    100.00% # Distribution of cycle latency between the first time a load is issued and its completion (Unspecified)
system.cpu.lsq0.loadToUse::90-99                  148      0.00%    100.00% # Distribution of cycle latency between the first time a load is issued and its completion (Unspecified)
system.cpu.lsq0.loadToUse::100-109                376      0.00%    100.00% # Distribution of cycle latency between the first time a load is issued and its completion (Unspecified)
system.cpu.lsq0.loadToUse::110-119                466      0.00%    100.00% # Distribution of cycle latency between the first time a load is issued and its completion (Unspecified)
system.cpu.lsq0.loadToUse::120-129                478      0.00%    100.00% # Distribution of cycle latency between the first time a load is issued and its completion (Unspecified)
system.cpu.lsq0.loadToUse::130-139               1751      0.00%    100.00% # Distribution of cycle latency between the first time a load is issued and its completion (Unspecified)
system.cpu.lsq0.loadToUse::140-149                196      0.00%    100.00% # Distribution of cycle latency between the first time a load is issued and its completion (Unspecified)
system.cpu.lsq0.loadToUse::150-159                 78      0.00%    100.00% # Distribution of cycle latency between the first time a load is issued and its completion (Unspecified)
system.cpu.lsq0.loadToUse::160-169                154      0.00%    100.00% # Distribution of cycle latency between the first time a load is issued and its completion (Unspecified)
system.cpu.lsq0.loadToUse::170-179                 21      0.00%    100.00% # Distribution of cycle latency between the first time a load is issued and its completion (Unspecified)
system.cpu.lsq0.loadToUse::190-199                122      0.00%    100.00% # Distribution of cycle latency between the first time a load is issued and its completion (Unspecified)
system.cpu.lsq0.loadToUse::200-209                  3      0.00%    100.00% # Distribution of cycle latency between the first time a load is issued and its completion (Unspecified)
system.cpu.lsq0.loadToUse::210-219                 97      0.00%    100.00% # Distribution of cycle latency between the first time a load is issued and its completion (Unspecified)
system.cpu.lsq0.loadToUse::220-229                  3      0.00%    100.00% # Distribution of cycle latency between the first time a load is issued and its completion (Unspecified)
system.cpu.lsq0.loadToUse::230-239                  1      0.00%    100.00% # Distribution of cycle latency between the first time a load is issued and its completion (Unspecified)
system.cpu.lsq0.loadToUse::240-249                  1      0.00%    100.00% # Distribution of cycle latency between the first time a load is issued and its completion (Unspecified)
system.cpu.lsq0.loadToUse::270-279                  4      0.00%    100.00% # Distribution of cycle latency between the first time a load is issued and its completion (Unspecified)
system.cpu.lsq0.loadToUse::280-289                  4      0.00%    100.00% # Distribution of cycle latency between the first time a load is issued and its completion (Unspecified)
system.cpu.lsq0.loadToUse::290-299                  4      0.00%    100.00% # Distribution of cycle latency between the first time a load is issued and its completion (Unspecified)
system.cpu.lsq0.loadToUse::overflows               63      0.00%    100.00% # Distribution of cycle latency between the first time a load is issued and its completion (Unspecified)
system.cpu.lsq0.loadToUse::min_value                2                       # Distribution of cycle latency between the first time a load is issued and its completion (Unspecified)
system.cpu.lsq0.loadToUse::max_value              760                       # Distribution of cycle latency between the first time a load is issued and its completion (Unspecified)
system.cpu.lsq0.loadToUse::total             79782952                       # Distribution of cycle latency between the first time a load is issued and its completion (Unspecified)
system.cpu.mmu.dtb.rdAccesses               119360080                       # TLB accesses on read requests (Count)
system.cpu.mmu.dtb.wrAccesses                24888944                       # TLB accesses on write requests (Count)
system.cpu.mmu.dtb.rdMisses                        39                       # TLB misses on read requests (Count)
[...]
system.mem_ctrls.dram.numReads::cpu.inst         6936                       # Number of read requests responded to by this memory (Count)
system.mem_ctrls.dram.numReads::cpu.data        10814                       # Number of read requests responded to by this memory (Count)
system.mem_ctrls.dram.numReads::total           17750                       # Number of read requests responded to by this memory (Count)
system.mem_ctrls.dram.numWrites::writebacks         9200                       # Number of write requests responded to by this memory (Count)
system.mem_ctrls.dram.numWrites::total           9200                       # Number of write requests responded to by this memory (Count)
system.mem_ctrls.dram.bwRead::cpu.inst        5833078                       # Total read bandwidth from this memory ((Byte/Second))
system.mem_ctrls.dram.bwRead::cpu.data        9094421                       # Total read bandwidth from this memory ((Byte/Second))
system.mem_ctrls.dram.bwRead::total          14927498                       # Total read bandwidth from this memory ((Byte/Second))
system.mem_ctrls.dram.bwInstRead::cpu.inst      5833078                       # Instruction read bandwidth from this memory ((Byte/Second))
system.mem_ctrls.dram.bwInstRead::total       5833078                       # Instruction read bandwidth from this memory ((Byte/Second))
system.mem_ctrls.dram.bwWrite::writebacks      7737069                       # Write bandwidth from this memory ((Byte/Second))
system.mem_ctrls.dram.bwWrite::total          7737069                       # Write bandwidth from this memory ((Byte/Second))
system.mem_ctrls.dram.bwTotal::writebacks      7737069                       # Total bandwidth to/from this memory ((Byte/Second))
system.mem_ctrls.dram.bwTotal::cpu.inst       5833078                       # Total bandwidth to/from this memory ((Byte/Second))
system.mem_ctrls.dram.bwTotal::cpu.data       9094421                       # Total bandwidth to/from this memory ((Byte/Second))
system.mem_ctrls.dram.bwTotal::total         22664568                       # Total bandwidth to/from this memory ((Byte/Second))
system.mem_ctrls.dram.readBursts                12215                       # Number of DRAM read bursts (Count)
system.mem_ctrls.dram.writeBursts                8032                       # Number of DRAM write bursts (Count)
system.mem_ctrls.dram.perBankRdBursts::0         1723                       # Per bank write bursts (Count)
system.mem_ctrls.dram.perBankRdBursts::1          654                       # Per bank write bursts (Count)
system.mem_ctrls.dram.perBankRdBursts::2           11                       # Per bank write bursts (Count)
system.mem_ctrls.dram.perBankRdBursts::3           20                       # Per bank write bursts (Count)
system.mem_ctrls.dram.perBankRdBursts::4           48                       # Per bank write bursts (Count)
system.mem_ctrls.dram.perBankRdBursts::5          120                       # Per bank write bursts (Count)
system.mem_ctrls.dram.perBankRdBursts::6          486                       # Per bank write bursts (Count)
system.mem_ctrls.dram.perBankRdBursts::7          143                       # Per bank write bursts (Count)
system.mem_ctrls.dram.perBankRdBursts::8          986                       # Per bank write bursts (Count)
system.mem_ctrls.dram.perBankRdBursts::9         3017                       # Per bank write bursts (Count)
system.mem_ctrls.dram.perBankRdBursts::10          964                       # Per bank write bursts (Count)
system.mem_ctrls.dram.perBankRdBursts::11          150                       # Per bank write bursts (Count)
system.mem_ctrls.dram.perBankRdBursts::12         1638                       # Per bank write bursts (Count)
system.mem_ctrls.dram.perBankRdBursts::13          637                       # Per bank write bursts (Count)
system.mem_ctrls.dram.perBankRdBursts::14          760                       # Per bank write bursts (Count)
system.mem_ctrls.dram.perBankRdBursts::15          858                       # Per bank write bursts (Count)
system.mem_ctrls.dram.perBankWrBursts::0            0                       # Per bank write bursts (Count)
system.mem_ctrls.dram.perBankWrBursts::1            7                       # Per bank write bursts (Count)
system.mem_ctrls.dram.perBankWrBursts::2            1                       # Per bank write bursts (Count)
system.mem_ctrls.dram.perBankWrBursts::3            0                       # Per bank write bursts (Count)
system.mem_ctrls.dram.perBankWrBursts::4           33                       # Per bank write bursts (Count)
system.mem_ctrls.dram.perBankWrBursts::5            9                       # Per bank write bursts (Count)
system.mem_ctrls.dram.perBankWrBursts::6          954                       # Per bank write bursts (Count)
system.mem_ctrls.dram.perBankWrBursts::7            0                       # Per bank write bursts (Count)
system.mem_ctrls.dram.perBankWrBursts::8         1478                       # Per bank write bursts (Count)
system.mem_ctrls.dram.perBankWrBursts::9         2912                       # Per bank write bursts (Count)
system.mem_ctrls.dram.perBankWrBursts::10         2595                       # Per bank write bursts (Count)
system.mem_ctrls.dram.perBankWrBursts::11            0                       # Per bank write bursts (Count)
system.mem_ctrls.dram.perBankWrBursts::12           28                       # Per bank write bursts (Count)
system.mem_ctrls.dram.perBankWrBursts::13            6                       # Per bank write bursts (Count)
system.mem_ctrls.dram.perBankWrBursts::14            0                       # Per bank write bursts (Count)
system.mem_ctrls.dram.perBankWrBursts::15            9                       # Per bank write bursts (Count)
system.mem_ctrls.dram.totQLat               121857500                       # Total ticks spent queuing (Tick)
system.mem_ctrls.dram.totBusLat              61075000                       # Total ticks spent in databus transfers (Tick)
system.mem_ctrls.dram.totMemAccLat          350888750                       # Total ticks spent from burst creation until serviced by the DRAM (Tick)
system.mem_ctrls.dram.avgQLat                 9976.05                       # Average queueing delay per DRAM burst ((Tick/Count))
system.mem_ctrls.dram.avgBusLat               5000.00                       # Average bus latency per DRAM burst ((Tick/Count))
system.mem_ctrls.dram.avgMemAccLat           28726.05                       # Average memory access latency per DRAM burst ((Tick/Count))
system.mem_ctrls.dram.readRowHits                8503                       # Number of row buffer hits during reads (Count)
system.mem_ctrls.dram.writeRowHits               7174                       # Number of row buffer hits during writes (Count)
system.mem_ctrls.dram.readRowHitRate            69.61                       # Row buffer hit rate for reads (Ratio)
system.mem_ctrls.dram.writeRowHitRate           89.32                       # Row buffer hit rate for writes (Ratio)
system.mem_ctrls.dram.bytesPerActivate::samples         4574                       # Bytes accessed per row activation (Byte)
system.mem_ctrls.dram.bytesPerActivate::mean   283.480542                       # Bytes accessed per row activation (Byte)
system.mem_ctrls.dram.bytesPerActivate::gmean   191.602964                       # Bytes accessed per row activation (Byte)
system.mem_ctrls.dram.bytesPerActivate::stdev   270.929118                       # Bytes accessed per row activation (Byte)
system.mem_ctrls.dram.bytesPerActivate::0-127         1228     26.85%     26.85% # Bytes accessed per row activation (Byte)
system.mem_ctrls.dram.bytesPerActivate::128-255         1539     33.65%     60.49% # Bytes accessed per row activation (Byte)
system.mem_ctrls.dram.bytesPerActivate::256-383          529     11.57%     72.06% # Bytes accessed per row activation (Byte)
system.mem_ctrls.dram.bytesPerActivate::384-511          536     11.72%     83.78% # Bytes accessed per row activation (Byte)
system.mem_ctrls.dram.bytesPerActivate::512-639          219      4.79%     88.57% # Bytes accessed per row activation (Byte)
system.mem_ctrls.dram.bytesPerActivate::640-767           91      1.99%     90.56% # Bytes accessed per row activation (Byte)
system.mem_ctrls.dram.bytesPerActivate::768-895           52      1.14%     91.69% # Bytes accessed per row activation (Byte)
system.mem_ctrls.dram.bytesPerActivate::896-1023           43      0.94%     92.63% # Bytes accessed per row activation (Byte)
system.mem_ctrls.dram.bytesPerActivate::1024-1151          337      7.37%    100.00% # Bytes accessed per row activation (Byte)
system.mem_ctrls.dram.bytesPerActivate::total         4574                       # Bytes accessed per row activation (Byte)
system.mem_ctrls.dram.bytesRead                781760                       # Total bytes read (Byte)
system.mem_ctrls.dram.bytesWritten             514048                       # Total bytes written (Byte)
system.mem_ctrls.dram.avgRdBW               10.272642                       # Average DRAM read bandwidth in MiBytes/s ((Byte/Second))
system.mem_ctrls.dram.avgWrBW                6.754798                       # Average DRAM write bandwidth in MiBytes/s ((Byte/Second))
system.mem_ctrls.dram.peakBW                 12800.00                       # Theoretical peak bandwidth in MiByte/s ((Byte/Second))
system.mem_ctrls.dram.busUtil                    0.13                       # Data bus utilization in percentage (Ratio)
system.mem_ctrls.dram.busUtilRead                0.08                       # Data bus utilization in percentage for reads (Ratio)
system.mem_ctrls.dram.busUtilWrite               0.05                       # Data bus utilization in percentage for writes (Ratio)
system.mem_ctrls.dram.pageHitRate               77.43                       # Row buffer hit rate, read and write combined (Ratio)
system.mem_ctrls.dram.power_state.pwrStateResidencyTicks::UNDEFINED  76275380000                       # Cumulative time (in ticks) in various power states (Tick)
system.mem_ctrls.dram.rank0.actEnergy        10145940                       # Energy for activate commands per rank (pJ) (Joule)
system.mem_ctrls.dram.rank0.preEnergy         5385105                       # Energy for precharge commands per rank (pJ) (Joule)
system.mem_ctrls.dram.rank0.readEnergy       23033640                       # Energy for read commands per rank (pJ) (Joule)
system.mem_ctrls.dram.rank0.writeEnergy       5240880                       # Energy for write commands per rank (pJ) (Joule)
system.mem_ctrls.dram.rank0.refreshEnergy 6007491360.000001                       # Energy for refresh commands per rank (pJ) (Joule)
system.mem_ctrls.dram.rank0.actBackEnergy   2370438480                       # Energy for active background per rank (pJ) (Joule)
system.mem_ctrls.dram.rank0.preBackEnergy  27227669760                       # Energy for precharge background per rank (pJ) (Joule)
system.mem_ctrls.dram.rank0.actPowerDownEnergy            0                       # Energy for active power-down per rank (pJ) (Joule)
system.mem_ctrls.dram.rank0.prePowerDownEnergy            0                       # Energy for precharge power-down per rank (pJ) (Joule)
system.mem_ctrls.dram.rank0.selfRefreshEnergy            0                       # Energy for self refresh per rank (pJ) (Joule)
system.mem_ctrls.dram.rank0.totalEnergy   35649405165                       # Total energy per rank (pJ) (Joule)
system.mem_ctrls.dram.rank0.averagePower   468.447561                       # Core power per rank (mW) (Watt)
system.mem_ctrls.dram.rank0.totalIdleTime            0                       # Total Idle time Per DRAM Rank (Tick)
system.mem_ctrls.dram.rank0.pwrStateTime::IDLE  70760119750                       # Time in different power states (Tick)
system.mem_ctrls.dram.rank0.pwrStateTime::REF   2541240000                       # Time in different power states (Tick)
system.mem_ctrls.dram.rank0.pwrStateTime::SREF            0                       # Time in different power states (Tick)
system.mem_ctrls.dram.rank0.pwrStateTime::PRE_PDN            0                       # Time in different power states (Tick)
system.mem_ctrls.dram.rank0.pwrStateTime::ACT   2802361250                       # Time in different power states (Tick)
system.mem_ctrls.dram.rank0.pwrStateTime::ACT_PDN            0                       # Time in different power states (Tick)
system.mem_ctrls.dram.rank1.actEnergy        22590960                       # Energy for activate commands per rank (pJ) (Joule)
system.mem_ctrls.dram.rank1.preEnergy        11992200                       # Energy for precharge commands per rank (pJ) (Joule)
system.mem_ctrls.dram.rank1.readEnergy       64552740                       # Energy for read commands per rank (pJ) (Joule)
system.mem_ctrls.dram.rank1.writeEnergy      36686160                       # Energy for write commands per rank (pJ) (Joule)
system.mem_ctrls.dram.rank1.refreshEnergy 6007491360.000001                       # Energy for refresh commands per rank (pJ) (Joule)
system.mem_ctrls.dram.rank1.actBackEnergy   3221803020                       # Energy for active background per rank (pJ) (Joule)
system.mem_ctrls.dram.rank1.preBackEnergy  26510765280                       # Energy for precharge background per rank (pJ) (Joule)
system.mem_ctrls.dram.rank1.actPowerDownEnergy            0                       # Energy for active power-down per rank (pJ) (Joule)
system.mem_ctrls.dram.rank1.prePowerDownEnergy            0                       # Energy for precharge power-down per rank (pJ) (Joule)
system.mem_ctrls.dram.rank1.selfRefreshEnergy            0                       # Energy for self refresh per rank (pJ) (Joule)
system.mem_ctrls.dram.rank1.totalEnergy   35875881720                       # Total energy per rank (pJ) (Joule)
system.mem_ctrls.dram.rank1.averagePower   471.423555                       # Core power per rank (mW) (Watt)
system.mem_ctrls.dram.rank1.totalIdleTime            0                       # Total Idle time Per DRAM Rank (Tick)
system.mem_ctrls.dram.rank1.pwrStateTime::IDLE  68888423250                       # Time in different power states (Tick)
system.mem_ctrls.dram.rank1.pwrStateTime::REF   2541240000                       # Time in different power states (Tick)
system.mem_ctrls.dram.rank1.pwrStateTime::SREF            0                       # Time in different power states (Tick)
system.mem_ctrls.dram.rank1.pwrStateTime::PRE_PDN            0                       # Time in different power states (Tick)
system.mem_ctrls.dram.rank1.pwrStateTime::ACT   4674145500                       # Time in different power states (Tick)
system.mem_ctrls.dram.rank1.pwrStateTime::ACT_PDN            0                       # Time in different power states (Tick)
system.mem_ctrls.power_state.pwrStateResidencyTicks::UNDEFINED  76275380000                       # Cumulative time (in ticks) in various power states (Tick)
system.membus.transDist::ReadResp                9603                       # Transaction distribution (Count)
system.membus.transDist::WritebackDirty          9200                       # Transaction distribution (Count)
system.membus.transDist::CleanEvict              8552                       # Transaction distribution (Count)
system.membus.transDist::ReadExReq               8147                       # Transaction distribution (Count)
system.membus.transDist::ReadExResp              8147                       # Transaction distribution (Count)
system.membus.transDist::ReadSharedReq           9604                       # Transaction distribution (Count)
system.membus.pktCount_system.l2cache.mem_side_port::system.mem_ctrls.port        53253                       # Packet count per connected requestor and responder (Count)
system.membus.pktCount_system.l2cache.mem_side_port::total        53253                       # Packet count per connected requestor and responder (Count)
system.membus.pktCount::total                   53253                       # Packet count per connected requestor and responder (Count)
system.membus.pktSize_system.l2cache.mem_side_port::system.mem_ctrls.port      1724800                       # Cumulative packet size per connected requestor and responder (Byte)
system.membus.pktSize_system.l2cache.mem_side_port::total      1724800                       # Cumulative packet size per connected requestor and responder (Byte)
system.membus.pktSize::total                  1724800                       # Cumulative packet size per connected requestor and responder (Byte)
system.membus.snoops                                0                       # Total snoops (Count)
system.membus.snoopTraffic                          0                       # Total snoop traffic (Byte)
system.membus.snoopFanout::samples              17751                       # Request fanout histogram (Count)
system.membus.snoopFanout::mean                     0                       # Request fanout histogram (Count)
system.membus.snoopFanout::stdev                    0                       # Request fanout histogram (Count)
system.membus.snoopFanout::underflows               0      0.00%      0.00% # Request fanout histogram (Count)
system.membus.snoopFanout::0                    17751    100.00%    100.00% # Request fanout histogram (Count)
system.membus.snoopFanout::1                        0      0.00%    100.00% # Request fanout histogram (Count)
system.membus.snoopFanout::overflows                0      0.00%    100.00% # Request fanout histogram (Count)
system.membus.snoopFanout::min_value                0                       # Request fanout histogram (Count)
system.membus.snoopFanout::max_value                0                       # Request fanout histogram (Count)
system.membus.snoopFanout::total                17751                       # Request fanout histogram (Count)
system.membus.power_state.pwrStateResidencyTicks::UNDEFINED  76275380000                       # Cumulative time (in ticks) in various power states (Tick)
system.membus.reqLayer2.occupancy            36151500                       # Layer occupancy (ticks) (Tick)
system.membus.reqLayer2.utilization               0.0                       # Layer utilization (Ratio)
system.membus.respLayer1.occupancy           46738500                       # Layer occupancy (ticks) (Tick)
system.membus.respLayer1.utilization              0.0                       # Layer utilization (Ratio)
system.membus.snoop_filter.totRequests          35503                       # Total number of requests made to the snoop filter. (Count)
system.membus.snoop_filter.hitSingleRequests        17752                       # Number of requests hitting in the snoop filter with a single holder of the requested data. (Count)
system.membus.snoop_filter.hitMultiRequests            0                       # Number of requests hitting in the snoop filter with multiple (>1) holders of the requested data. (Count)
system.membus.snoop_filter.totSnoops                0                       # Total number of snoops made to the snoop filter. (Count)
system.membus.snoop_filter.hitSingleSnoops            0                       # Number of snoops hitting in the snoop filter with a single holder of the requested data. (Count)
system.membus.snoop_filter.hitMultiSnoops            0                       # Number of snoops hitting in the snoop filter with multiple (>1) holders of the requested data. (Count)
system.workload.inst.arm                            0                       # number of arm instructions executed (Count)
system.workload.inst.quiesce                        0                       # number of quiesce instructions executed (Count)

---------- End Simulation Statistics   ----------
